*SPEF "IEEE 1481-1998"
*DESIGN "clb"
*DATE "Thu Apr  9 14:38:32 2026"
*VENDOR "Cadence Design Systems, Inc."
*PROGRAM "Innovus"
*VERSION "22.11-s119_1"
*DESIGN_FLOW "COUPLING C" "PIN_CAP NONE" "NAME_SCOPE LOCAL"
*DIVIDER /
*DELIMITER :
*BUS_DELIMITER []
*T_UNIT 1 NS
*C_UNIT 1 PF
*R_UNIT 1 OHM
*L_UNIT 1 HENRY

// MMMC spef file for corner 'ff_n40C_1v95.hold_rc'

*NAME_MAP

*1 FE_OFN1_scan_out_0
*2 FE_OFN0_q
*3 clk
*4 addr[3]
*5 addr[2]
*6 addr[1]
*7 addr[0]
*8 x
*9 mux
*10 q
*11 scan_clk
*12 scan_en
*13 scan_in[0]
*14 scan_out[0]
*15 mem[15]
*16 mem[14]
*17 mem[13]
*18 mem[12]
*19 mem[11]
*20 mem[10]
*21 mem[9]
*22 mem[8]
*23 mem[7]
*24 mem[6]
*25 mem[5]
*26 mem[4]
*27 mem[3]
*28 mem[2]
*29 mem[1]
*30 mem[0]
*31 UNCONNECTED
*32 UNCONNECTED0
*33 UNCONNECTED1
*34 UNCONNECTED2
*35 UNCONNECTED3
*36 UNCONNECTED4
*37 UNCONNECTED5
*38 UNCONNECTED6
*39 UNCONNECTED7
*40 UNCONNECTED8
*41 UNCONNECTED9
*42 UNCONNECTED10
*43 UNCONNECTED11
*44 UNCONNECTED12
*45 UNCONNECTED13
*46 UNCONNECTED14
*47 UNCONNECTED15
*48 UNCONNECTED16
*49 UNCONNECTED17
*50 n_0
*51 n_1
*52 n_2
*53 n_3
*54 n_4
*55 n_5
*56 n_6
*57 n_7
*58 n_8
*59 n_9
*60 n_10
*61 n_11
*62 n_12
*63 n_13
*64 n_14
*65 n_15
*66 q_control
*67 FE_OFC1_scan_out_0
*68 FE_OFC0_q
*69 q_reg_reg
*70 g493__2398
*71 g494__5107
*72 g495__6260
*73 g496__4319
*74 g497__8428
*75 g498__5526
*76 g509__6783
*77 g510__3680
*78 g521__1617
*79 g522__2802
*80 mem_reg\[5\]
*81 mem_reg\[2\]
*82 mux_control_reg
*83 mem_reg\[9\]
*84 mem_reg\[12\]
*85 mem_reg\[13\]
*86 mem_reg\[14\]
*87 mem_reg\[15\]
*88 mem_reg\[3\]
*89 mem_reg\[0\]
*90 mem_reg\[1\]
*91 q_control_reg
*92 mem_reg\[6\]
*93 mem_reg\[7\]
*94 mem_reg\[8\]
*95 mem_reg\[10\]
*96 mem_reg\[11\]
*97 mem_reg\[4\]
*98 g519__1705
*99 g520__5122
*100 g523__8246
*101 g524__7098
*102 g525__6131
*103 g527
*104 g526


*PORTS

*3 I *C 34.44 0
*4 I *C 28.29 0
*5 I *C 22.14 0
*6 I *C 15.99 0
*7 I *C 9.84 0
*8 I *C 3.69 0
*9 O *C 31.98 0
*10 O *C 25.83 0
*11 I *C 19.68 0
*12 I *C 12.3 0
*13 I *C 10.455 0
*14 O *C 0.615 0


*D_NET *1 0.00865984

*CONN
*I *82:D I *C 22.08 6.44 *L 0.00187 *D SDFFX1
*I *82:Q O *C 30.36 5.06 *L 0 *D SDFFX1
*I *70:S0 I *C 31.74 2.3 *L 0.0042 *D MX2X4
*I *67:A I *C 0.92 2.3 *L 0.0114 *D BUFX16

*CAP
1 *82:D 6.7875e-05
2 *82:Q 6.7875e-05
3 *70:S0 6.7875e-05
4 *67:A 6.7875e-05
5 *1:4 0.000164562
6 *1:5 0.000379421
7 *1:6 0.000320191
8 *1:7 0.000243252
9 *1:8 0.000243252
10 *1:9 0.000587722
11 *1:10 0.000577303
12 *1:11 0.000222977
13 *1:12 0.000233396
14 *1:13 9.85452e-05
15 *1:14 0.000172235
16 *1:15 0.00078576
17 *1:16 0.00078576
18 *1:17 5.84989e-05
19 *1:18 3.98665e-05
20 *1:19 0.000134695
21 *1:20 0.000160269
22 *1:21 8.6879e-05
23 *1:22 0.000112454
24 *1:23 7.39059e-05
25 *1:24 0.000195724
26 *1:25 0.000105835
27 *1:26 7.53447e-05
28 *1:27 0.00012153
29 *1:15 *12:32 2.317e-05
30 *1:16 *12:33 2.317e-05
31 *1:15 *12:33 2.317e-05
32 *1:16 *12:34 2.317e-05
33 *1:15 *12:30 8.111e-05
34 *1:16 *12:31 8.111e-05
35 *1:15 *12:35 6.303e-05
36 *1:16 *12:36 6.303e-05
37 *1:26 *12:37 2.581e-05
38 *1:25 *12:38 2.581e-05
39 *1:24 *12:37 4.78e-06
40 *1:23 *12:38 4.78e-06
41 *1:22 *12:26 5.66e-06
42 *1:21 *12:27 5.66e-06
43 *1:20 *12:39 8.15e-06
44 *1:19 *12:40 8.15e-06
45 *1:18 *12:41 5.094e-05
46 *1:17 *12:42 5.094e-05
47 *1:18 *12:29 0.00015622
48 *1:17 *12:43 0.000156219988
49 *1:7 *19:11 0.00013904
50 *1:8 *19:5 0.00013904
51 *1:11 *19:11 4.067e-05
52 *1:12 *19:5 4.067e-05
53 *1:13 *19:10 7.57e-06
54 *1:14 *19:9 7.5700048e-06
55 *1:7 *66:15 0.0003782
56 *1:8 *66:11 0.0003782
57 *1:9 *66:11 0.0001738
58 *1:10 *66:7 0.0001738
59 *1:11 *66:18 2.317e-05
60 *1:12 *66:14 2.3170005e-05

*RES
1 *1:27 *70:S0 4.5
2 *1:6 *1:27 1.23211
3 *1:6 *1:5 4.51785707
4 *1:5 *82:Q 4.5
5 *1:5 *1:4 1.59824
6 *1:15 *1:4 3.40997
7 *1:16 *1:15 1.72963
8 *1:22 *1:16 3.40997
9 *1:21 *1:22 1.18751
10 *1:13 *1:21 0.410727
11 *1:26 *82:D 4.5
12 *1:14 *1:13 2.05357
13 *1:25 *1:26 0.821454
14 *1:14 *1:24 1.64284
15 *1:24 *1:25 1.23211
16 *1:23 *1:24 0.571419
17 *1:11 *1:23 3.40997
18 *1:12 *1:11 0.57652
19 *1:12 *1:7 0.0955467
20 *1:8 *1:7 1.00896
21 *1:8 *1:9 0.0955467
22 *1:10 *1:9 1.44134
23 *1:20 *1:10 3.40997
24 *1:19 *1:20 1.33931
25 *1:18 *1:19 0.410727
26 *1:17 *1:18 2.05357
27 *67:A *1:17 4.5
*END

*D_NET *2 0.00129357

*CONN
*I *69:Q O *C 28.98 3.22 *L 0 *D SDFFX1
*I *68:A I *C 26.68 10.58 *L 0.0114 *D BUFX16

*CAP
1 *69:Q 6.78793e-05
2 *68:A 6.78793e-05
3 *2:2 0.000170659
4 *2:3 0.000453758
5 *2:4 0.00053339

*RES
1 *2:3 *69:Q 4.50002
2 *2:3 *2:4 6.16071415
3 *2:2 *2:4 2.05354
4 *68:A *2:2 4.50002
*END

*D_NET *3 0.00300119

*CONN
*P *3 I *C 34.44 0 *L 0
*I *69:CK I *C 22.08 3.68 *L 0.00182 *D SDFFX1

*CAP
1 *3 0.000263702
2 *69:CK 6.78807e-05
3 *3:2 0.000110328
4 *3:3 0.000103387
5 *3:4 0.00048396
6 *3:5 0.000473525
7 *3:6 0.000427031
8 *3:7 0.000427031
9 *3:8 0.000309023
10 *3:9 0.000123628
11 *3:10 0.000131367
12 *3:11 8.03314e-05

*RES
1 *3 *3:8 0.573418
2 *3:11 *3:8 0.0963364
3 *3:9 *3:11 3.41002
4 *3:10 *3:9 0.18251
5 *3:10 *3:6 0.0955811
6 *3:7 *3:6 0.720634
7 *3:4 *3:7 0.0955811
8 *3:5 *3:4 0.936859
9 *3:2 *3:5 3.41002
10 *3:3 *3:2 0.937477
11 *69:CK *3:3 4.5
*END

*D_NET *4 0.00325092

*CONN
*P *4 I *C 28.29 0 *L 0
*I *71:S0 I *C 32.2 23 *L 0.00376 *D MX2X1

*CAP
1 *4 0.000160233
2 *71:S0 6.78819e-05
3 *4:2 9.80094e-05
4 *4:3 9.80094e-05
5 *4:4 0.000123373
6 *4:5 0.000105949
7 *4:6 0.000163404
8 *4:7 0.000206389
9 *4:8 0.000150031
10 *4:9 0.000150031
11 *4:10 0.000266249
12 *4:11 0.000266249
13 *4:12 0.00012908
14 *4:13 0.00010452
15 *4:14 6.47686e-05
16 *4:15 6.47686e-05
17 *4:16 0.000101397
18 *4:17 0.00010733
19 *4:18 0.000195239
20 *4:19 0.00031535
21 *4:20 0.00031266

*RES
1 *4:16 *71:S0 4.5
2 *4:17 *4:16 0.821434
3 *4:12 *4:17 0.821434
4 *4:13 *4:12 2.05355
5 *4:13 *4:14 0.410683
6 *4:15 *4:14 0.821434
7 *4:10 *4:15 0.410683
8 *4:11 *4:10 4.10717
9 *4:11 *4:2 0.410683
10 *4:3 *4:2 1.23212
11 *4:8 *4:3 0.410683
12 *4:9 *4:8 2.4643
13 *4:9 *4:6 0.410683
14 *4:7 *4:6 3.28574
15 *4:4 *4:7 1.64287
16 *4:5 *4:4 0.839287
17 *4:20 *4:5 3.41002
18 *4:19 *4:20 0.540527
19 *4:18 *4:19 3.41002
20 *4 *4:18 0.477837
*END

*D_NET *5 0.00663707

*CONN
*P *5 I *C 22.14 0 *L 0
*I *104:A I *C 32.2 5.98 *L 0.00306 *D INVX1
*I *73:A0 I *C 17.48 22.54 *L 0.00299 *D OAI222X1
*I *72:A0 I *C 21.16 14.26 *L 0.00299 *D OAI222X1

*CAP
1 *5 9.20202e-05
2 *104:A 6.78735e-05
3 *73:A0 6.78735e-05
4 *72:A0 6.78735e-05
5 *5:4 8.51773e-05
6 *5:5 9.2115e-05
7 *5:6 6.22502e-05
8 *5:7 5.53124e-05
9 *5:8 0.000720701
10 *5:9 0.000723397
11 *5:10 5.88355e-05
12 *5:11 6.57732e-05
13 *5:12 0.000108213
14 *5:13 0.000110909
15 *5:14 0.00026747
16 *5:15 0.000264787
17 *5:16 0.00088802
18 *5:17 0.00035659
19 *5:18 0.000752639
20 *5:19 0.00063929
21 *5:20 0.000790932
22 *5:21 0.000137332
23 *5:4 *60:7 8.083e-05
24 *5:5 *60:6 8.08299972e-05

*RES
1 *5:7 *104:A 4.5
2 *5:7 *5:6 0.107117
3 *5:10 *72:A0 4.5
4 *5:8 *5:6 3.41002
5 *5 *5:21 0.191162
6 *5:11 *5:10 0.205376
7 *5:9 *5:8 1.47972
8 *5:21 *5:17 0.0963364
9 *5:12 *5:11 3.41002
10 *5:16 *5:9 3.41002
11 *5:17 *5:16 0.668999
12 *5:13 *5:12 0.135544
13 *5:16 *5:18 1.24235
14 *5:20 *5:13 3.41002
15 *5:20 *5:18 0.385414
16 *5:20 *5:19 1.14677
17 *5:14 *5:19 3.41002
18 *5:4 *73:A0 4.5
19 *5:15 *5:14 0.441032
20 *5:5 *5:4 1.06252
21 *5:5 *5:15 3.41002
*END

*D_NET *6 0.00736333

*CONN
*P *6 I *C 15.99 0 *L 0
*I *103:A I *C 17.94 14.26 *L 0.00306 *D INVX1
*I *102:B I *C 16.1 22.08 *L 0.00311 *D NOR2X1
*I *99:S0 I *C 13.8 26.68 *L 0.00376 *D MX2X1
*I *98:S0 I *C 17.48 26.68 *L 0.00376 *D MX2X1
*I *79:B0 I *C 14.72 11.04 *L 0.00306 *D AOI22X1
*I *78:B0 I *C 12.88 13.8 *L 0.00306 *D AOI22X1

*CAP
1 *6 0.00014086
2 *103:A 6.78755e-05
3 *102:B 6.78755e-05
4 *99:S0 6.78755e-05
5 *98:S0 6.78755e-05
6 *79:B0 6.78755e-05
7 *78:B0 6.78755e-05
8 *6:7 0.000347276
9 *6:8 0.000265763
10 *6:9 0.000156019
11 *6:10 0.000149078
12 *6:11 0.000210295
13 *6:12 0.000210295
14 *6:13 0.000112093
15 *6:14 0.000137667
16 *6:15 0.000104448
17 *6:16 0.000101762
18 *6:17 0.000385896
19 *6:18 0.000383209
20 *6:19 6.60065e-05
21 *6:20 7.29471e-05
22 *6:21 0.000183086
23 *6:22 0.00016233
24 *6:23 4.65652e-05
25 *6:24 0.000121081
26 *6:27 0.000170661
27 *6:28 0.000118451
28 *6:29 0.00011151
29 *6:30 0.000186186
30 *6:31 0.000185444
31 *6:32 0.000473278
32 *6:33 0.0006155
33 *6:34 0.000317353
34 *6:35 0.000366417
35 *6:36 0.000366417
36 *6:37 0.000121532
37 *6:9 *60:5 5.637e-05
38 *6:10 *60:4 5.637e-05
39 *6:11 *60:5 7.742e-05
40 *6:12 *60:4 7.742e-05
41 *6:13 *60:5 1.841e-05
42 *6:14 *60:4 1.841e-05
43 *6:9 *60:3 6.15e-06
44 *6:10 *60:2 6.14999227e-06
45 *6:7 *50:11 0.00012497
46 *6:8 *50:10 0.00012497

*RES
1 *6:27 *99:S0 4.5
2 *6:37 *98:S0 4.5
3 *6:27 *6:7 2.05355
4 *6:7 *6:37 1.23212
5 *6:8 *102:B 4.5
6 *6:8 *6:7 3.28574
7 *6:24 *6:8 0.821434
8 *6:24 *6:11 0.410683
9 *6:12 *6:11 3.69642
10 *6:10 *103:A 4.5
11 *6:29 *79:B0 4.5
12 *6 *6:30 0.286674
13 *6:13 *6:12 0.410683
14 *6:10 *6:9 1.56253
15 *6:28 *6:29 0.866066
16 *6:30 *6:35 0.0963364
17 *6:14 *6:13 0.901772
18 *6:21 *6:9 3.41002
19 *6:16 *6:28 3.41002
20 *6:35 *6:36 0.764511
21 *6:22 *6:14 3.41002
22 *6:22 *6:21 0.288254
23 *6:16 *6:15 0.19899
24 *6:31 *6:36 0.0963364
25 *6:26 *6:23 0.085556
26 *6:23 *6:22 0.0172348
27 *6:32 *6:15 3.41002
28 *6:31 *6:32 0.286674
29 *6:34 *6:23 3.41002
30 *6:32 *6:33 0.668999
31 *6:33 *6:34 0.477837
32 *6:17 *6:33 3.41002
33 *6:18 *6:17 0.487244
34 *6:20 *6:18 3.41002
35 *6:19 *78:B0 4.5
36 *6:20 *6:19 0.339272
37 *6:25 *6:19 0.519722
*END

*D_NET *7 0.00998343

*CONN
*P *7 I *C 9.84 0 *L 0
*I *102:A I *C 15.64 22.54 *L 0.00302 *D NOR2X1
*I *101:A I *C 11.04 10.58 *L 0.00302 *D NOR2X1
*I *100:A I *C 19.32 13.8 *L 0.00306 *D NAND2X1
*I *75:B0 I *C 12.88 22.54 *L 0.00308 *D AOI222X1
*I *74:B0 I *C 15.18 14.26 *L 0.00308 *D AOI222X1

*CAP
1 *7 0.000654413
2 *102:A 6.78748e-05
3 *101:A 6.78748e-05
4 *100:A 6.78748e-05
5 *75:B0 6.78748e-05
6 *74:B0 6.78748e-05
7 *7:6 0.000302744
8 *7:7 0.000375163
9 *7:8 0.000118588
10 *7:9 0.000115762
11 *7:10 0.000345602
12 *7:11 5.36309e-05
13 *7:12 6.05626e-05
14 *7:13 0.000310656
15 *7:14 0.000285086
16 *7:15 8.97193e-05
17 *7:16 0.000123536
18 *7:17 0.000100249
19 *7:18 8.69744e-05
20 *7:19 0.000114805
21 *7:20 0.000109603
22 *7:21 0.000134631
23 *7:22 0.000137318
24 *7:23 0.000135577
25 *7:24 8.74588e-05
26 *7:25 6.48877e-05
27 *7:26 8.35143e-05
28 *7:27 0.000108865
29 *7:28 0.000119291
30 *7:29 6.74942e-05
31 *7:30 7.01931e-05
32 *7:31 0.000689428
33 *7:33 0.00075585
34 *7:34 0.00075585
35 *7:35 0.000247233
36 *7:36 0.000302847
37 *7:37 0.000302847
38 *7:38 0.000247233
39 *7:39 0.000334161
40 *7:40 0.00031227
41 *7:41 0.000322697
42 *7:15 *19:11 4.48e-06
43 *7:16 *19:5 4.48e-06
44 *7:16 *19:11 1.46e-06
45 *7:17 *19:5 1.46e-06
46 *7:18 *19:7 6.249e-05
47 *7:19 *19:6 6.249e-05
48 *7:19 *19:7 0.0001175
49 *7:20 *19:6 0.000117500003
50 *7:6 *50:9 0.00012497
51 *7:7 *50:8 0.00012497
52 *7:7 *50:7 9.373e-05
53 *7:8 *50:6 9.373e-05
54 *7:6 *50:5 8.444e-05
55 *7:7 *50:4 8.444e-05
56 *7:7 *50:5 5.89e-06
57 *7:8 *50:4 5.89e-06
58 *7:9 *50:3 6.249e-05
59 *7:10 *50:2 6.249e-05
60 *7:11 *50:9 1.2e-06
61 *7:12 *50:8 1.20000805e-06

*RES
1 *7:26 *100:A 4.5
2 *7:26 *7:25 0.410683
3 *7:25 *7:14 0.410683
4 *7:14 *7:13 2.51786
5 *7:27 *7:13 3.41002
6 *7:28 *7:27 0.144127
7 *7:28 *7:41 0.0955811
8 *7:40 *7:41 0.504478
9 *7:6 *102:A 4.5
10 *7:7 *7:40 3.41002
11 *7:7 *7:6 4.33033
12 *7 *7:31 1.14677
13 *7:8 *7:7 1.83039
14 *7:22 *7:31 3.41002
15 *7:9 *7:8 0.410683
16 *7:22 *7:21 0.188004
17 *7:10 *74:B0 4.5
18 *7:10 *7:9 1.25443
19 *7:20 *7:21 3.41002
20 *7:39 *7:10 2.44199
21 *7:19 *101:A 4.5
22 *7:20 *7:19 1.54461
23 *7:23 *7:39 1.64287
24 *7:19 *7:18 1.17856
25 *7:24 *7:23 0.46431
26 *7:17 *7:18 3.41002
27 *7:15 *7:24 3.41002
28 *7:17 *7:16 0.197411
29 *7:16 *7:15 0.162941
30 *7:35 *7:16 3.41002
31 *7:35 *7:36 0.286674
32 *7:33 *7:36 0.192673
33 *7:33 *7:34 1.33793
34 *7:34 *7:37 0.192673
35 *7:11 *75:B0 4.5
36 *7:37 *7:38 0.286674
37 *7:12 *7:11 0.102654
38 *7:30 *7:38 3.41002
39 *7:29 *7:12 3.41002
40 *7:30 *7:29 0.0908432
41 *7:32 *7:29 0.123184
*END

*D_NET *8 0.00419516

*CONN
*P *8 I *C 3.69 0 *L 0
*I *70:B I *C 33.58 2.76 *L 0.00253 *D MX2X4
*I *69:SI I *C 22.08 1.84 *L 0.0018 *D SDFFX1

*CAP
1 *8 4.60027e-05
2 *70:B 6.78765e-05
3 *69:SI 6.78765e-05
4 *8:3 8.10044e-05
5 *8:4 0.000487365
6 *8:5 0.000130307
7 *8:6 8.21779e-05
8 *8:7 0.00048467
9 *8:8 0.000122973
10 *8:9 0.00058973
11 *8:10 0.00120159
12 *8:11 6.5658e-05
13 *8:12 0.000669414
14 *8:13 9.84778e-05

*RES
1 *8:13 *70:B 4.50002
2 *8:12 *8:13 0.821447
3 *8:11 *69:SI 4.50002
4 *8:10 *8:12 10.2678576
5 *8:10 *8:11 0.410645
6 *8:9 *8:10 9.44641
7 *8:8 *8:9 0.410645
8 *8:5 *8:8 1.64289
9 *8:5 *8:6 0.67856
10 *8:7 *8:6 3.41003
11 *8:4 *8:7 0.93535
12 *8:3 *8:4 3.41003
13 *8 *8:3 0.0955718
*END

*D_NET *9 0.000829913

*CONN
*P *9 O *C 31.98 0 *L 1
*I *70:Y O *C 34.5 3.22 *L 0 *D MX2X4

*CAP
1 *9 9.20211e-05
2 *70:Y 6.78788e-05
3 *9:2 9.39404e-05
4 *9:3 6.83699e-05
5 *9:4 0.000127032
6 *9:5 0.00015548
7 *9:6 0.00015279
8 *9:7 7.24008e-05

*RES
1 *9:7 *70:Y 4.5
2 *9:3 *9:7 0.410683
3 *9:3 *9:2 0.401756
4 *9:6 *9:2 3.41002
5 *9:5 *9:6 0.322723
6 *9:4 *9:5 3.41002
7 *9 *9:4 0.191162
*END

*D_NET *10 0.00178814

*CONN
*P *10 O *C 25.83 0 *L 1
*I *68:Y O *C 28.06 11.5 *L 0 *D BUFX16

*CAP
1 *10 0.000138191
2 *68:Y 6.78821e-05
3 *10:2 0.000101154
4 *10:3 8.25189e-05
5 *10:4 0.00032997
6 *10:5 0.00032997
7 *10:6 6.55207e-05
8 *10:7 9.10885e-05
9 *10:8 0.0001732
10 *10:9 0.00020567
11 *10:10 0.000202982

*RES
1 *10:2 *68:Y 4.5
2 *10:3 *10:2 0.821454
3 *10:4 *10:3 0.410727
4 *10:5 *10:4 4.51785707
5 *10:5 *10:6 0.410727
6 *10:7 *10:6 0.696402
7 *10:10 *10:7 3.40997
8 *10:9 *10:10 0.349373
9 *10:8 *10:9 3.40997
10 *10 *10:8 0.286709
*END

*D_NET *11 0.0200409

*CONN
*P *11 I *C 19.68 0 *L 0
*I *97:CK I *C 2.3 12.88 *L 0.00182 *D SDFFX1
*I *96:CK I *C 12.88 4.6 *L 0.00182 *D SDFFX1
*I *95:CK I *C 26.68 12.88 *L 0.00182 *D SDFFX1
*I *94:CK I *C 23 21.16 *L 0.00182 *D SDFFX1
*I *93:CK I *C 4.14 29.44 *L 0.00182 *D SDFFX1
*I *92:CK I *C 12.88 20.24 *L 0.00182 *D SDFFX1
*I *91:CK I *C 11.5 3.68 *L 0.00182 *D SDFFX1
*I *90:CK I *C 2.3 11.96 *L 0.00182 *D SDFFX1
*I *89:CK I *C 25.3 29.44 *L 0.00182 *D SDFFX1
*I *88:CK I *C 2.3 4.6 *L 0.00182 *D SDFFX1
*I *87:CK I *C 23.46 20.24 *L 0.00182 *D SDFFX1
*I *86:CK I *C 2.76 21.16 *L 0.00182 *D SDFFX1
*I *85:CK I *C 14.72 29.44 *L 0.00182 *D SDFFX1
*I *84:CK I *C 2.3 20.24 *L 0.00182 *D SDFFX1
*I *83:CK I *C 17.48 11.96 *L 0.00182 *D SDFFX1
*I *82:CK I *C 23.46 4.6 *L 0.00182 *D SDFFX1
*I *81:CK I *C 25.3 28.52 *L 0.00182 *D SDFFX1
*I *80:CK I *C 4.6 28.52 *L 0.00182 *D SDFFX1

*CAP
1 *11 0.000114723
2 *97:CK 6.7875e-05
3 *96:CK 6.7875e-05
4 *95:CK 6.7875e-05
5 *94:CK 6.7875e-05
6 *93:CK 6.7875e-05
7 *92:CK 6.7875e-05
8 *91:CK 6.7875e-05
9 *90:CK 6.7875e-05
10 *89:CK 6.7875e-05
11 *88:CK 6.7875e-05
12 *87:CK 6.7875e-05
13 *86:CK 6.7875e-05
14 *85:CK 6.7875e-05
15 *84:CK 6.7875e-05
16 *83:CK 6.7875e-05
17 *82:CK 6.7875e-05
18 *81:CK 6.7875e-05
19 *80:CK 6.7875e-05
20 *11:19 0.000277945
21 *11:20 0.00027895
22 *11:21 0.000216236
23 *11:22 0.000216236
24 *11:23 0.000367853
25 *11:24 0.000452909
26 *11:25 0.000346555
27 *11:26 0.000268031
28 *11:27 0.0001722
29 *11:28 0.00017221
30 *11:29 0.000197779
31 *11:30 0.000211607
32 *11:31 0.000187043
33 *11:32 0.000512251
34 *11:33 0.000512251
35 *11:34 0.000330233
36 *11:35 0.000353783
37 *11:36 7.16727e-05
38 *11:37 0.000102015
39 *11:38 8.24472e-05
40 *11:39 7.01748e-05
41 *11:40 5.16406e-05
42 *11:41 0.000232847
43 *11:42 0.000343405
44 *11:43 0.000153414
45 *11:44 0.000153414
46 *11:45 0.000263305
47 *11:46 6.55751e-05
48 *11:47 0.000366567
49 *11:48 0.000338988
50 *11:49 0.000109475
51 *11:50 0.000109475
52 *11:51 0.000181119
53 *11:52 0.000110133
54 *11:53 0.000563505
55 *11:54 0.000633284062
56 *11:55 0.000136204
57 *11:56 0.000203731
58 *11:57 0.000196793
59 *11:58 8.96077e-05
60 *11:59 9.11152e-05
61 *11:60 0.000107272
62 *11:61 9.05451e-05
63 *11:62 5.67139e-05
64 *11:63 0.000205345
65 *11:64 0.000205345
66 *11:65 0.000292112
67 *11:66 0.000281685
68 *11:67 0.000104393
69 *11:68 0.000114819
70 *11:69 0.00010075
71 *11:70 0.00010075
72 *11:71 9.24681e-05
73 *11:72 9.24681e-05
74 *11:73 6.14875e-05
75 *11:74 6.41836e-05
76 *11:75 0.000124009
77 *11:76 8.3027e-05
78 *11:77 0.000149733
79 *11:79 7.23974e-05
80 *11:80 4.70313e-05
81 *11:81 7.23974e-05
82 *11:82 5.63757e-05
83 *11:83 7.23974e-05
84 *11:84 0.000570463
85 *11:85 0.000570463
86 *11:86 8.71629e-05
87 *11:87 7.23974e-05
88 *11:88 9.05258e-05
89 *11:89 0.000209616
90 *11:90 0.0001633
91 *11:91 9.69615e-05
92 *11:92 7.23974e-05
93 *11:93 0.000578329
94 *11:94 5.21915e-05
95 *11:95 7.08223e-05
96 *11:96 0.000231793
97 *11:97 0.000110403
98 *11:98 0.000578329
99 *11:99 4.70313e-05
100 *11:100 6.34299e-05
101 *11:101 0.000161667
102 *11:102 0.000146921
103 *11:103 9.69615e-05
104 *11:53 *18:4 2.737e-05
105 *11:54 *18:5 2.737e-05
106 *11:53 *18:5 4.853e-05
107 *11:54 *18:9 4.853e-05
108 *11:54 *18:5 1.532e-05
109 *11:55 *18:9 1.532e-05
110 *11:56 *18:16 3.422e-05
111 *11:57 *18:15 3.422e-05
112 *11:58 *18:10 4.404e-05
113 *11:59 *18:8 4.404e-05
114 *11:59 *18:10 2.441e-05
115 *11:60 *18:8 2.441e-05
116 *11:60 *18:8 1.29e-05
117 *11:51 *18:7 1.28999991e-05
118 *11:32 *29:13 6.385e-05
119 *11:33 *29:10 6.385e-05
120 *11:46 *29:11 0.00011886
121 *11:39 *29:9 0.00011886
122 *11:39 *29:9 6.249e-05
123 *11:40 *29:8 6.24900042e-05
124 *11:32 *27:11 0.00012745
125 *11:33 *27:7 0.00012745
126 *11:36 *27:13 2.48e-06
127 *11:37 *27:12 2.48e-06
128 *11:37 *27:10 2.11e-06
129 *11:38 *27:9 2.11e-06
130 *11:39 *27:13 2.11e-06
131 *11:40 *27:12 2.11e-06
132 *11:37 *27:8 8.286e-05
133 *11:38 *27:6 8.286e-05
134 *11:37 *27:6 3.871e-05
135 *11:38 *27:5 3.87100039e-05
136 *11:32 *19:11 4.56e-06
137 *11:33 *19:5 4.56e-06
138 *11:34 *19:7 0.00012158
139 *11:35 *19:6 0.00012158
140 *11:34 *19:6 4.415e-05
141 *11:35 *19:4 4.4149998e-05
142 *11:62 *22:8 2.581e-05
143 *11:47 *22:9 2.581e-05
144 *11:47 *22:8 0.00011614
145 *11:48 *22:9 0.00011614
146 *11:63 *22:8 7.581e-05
147 *11:64 *22:9 7.58099997e-05

*RES
1 *11:91 *85:CK 4.49999
2 *11:91 *11:19 0.82139
3 *11:20 *11:19 2.5982
4 *11:66 *11:20 3.40998
5 *11:66 *11:65 0.360323
6 *11:65 *11:93 0.0955744
7 *11:93 *11:98 0.864774
8 *11:70 *11:98 0.0955744
9 *11:70 *11:69 0.144129
10 *11:69 *11:68 0.0955744
11 *11:68 *11:67 0.144129
12 *11:102 *89:CK 4.49999
13 *11:101 *11:67 3.40998
14 *11:101 *11:102 1.64286
15 *11:100 *81:CK 4.49999
16 *11:100 *11:101 0.410736
17 *11:99 *11:100 0.410736
18 *11:99 *11:71 0.410736
19 *11:95 *94:CK 4.49999
20 *11:72 *11:71 2.0536
21 *11:94 *11:95 0.410736
22 *11:63 *11:72 0.410736
23 *11:94 *11:97 0.410736
24 *11:64 *11:63 4.10711
25 *11:96 *87:CK 4.49999
26 *11:96 *11:97 1.64286
27 *11:64 *11:62 0.410736
28 *11:103 *95:CK 4.49999
29 *11:96 *11:47 2.0536
30 *11:47 *11:62 0.82139
31 *11:48 *11:103 0.82139
32 *11:48 *11:47 4.92858
33 *11:61 *11:48 0.82139
34 *11:61 *11:21 0.205368
35 *11:92 *83:CK 4.49999
36 *11:22 *11:21 2.87499
37 *11:49 *11:92 0.410736
38 *11:41 *11:22 0.205368
39 *11:50 *11:49 1.64286
40 *11:42 *11:41 4.10711
41 *11:50 *11:43 0.410736
42 *11:26 *82:CK 4.49999
43 *11:26 *11:42 2.0536
44 *11:44 *11:43 2.46425
45 *11:27 *11:26 2.33927
46 *11:28 *11:44 0.410736
47 *11:45 *11:27 3.40998
48 *11 *11:77 0.286723
49 *11:29 *11:28 3.5714
50 *11:23 *11:45 0.59219
51 *11:23 *11:77 3.40998
52 *11:24 *11:29 3.40998
53 *11:24 *11:23 0.416714
54 *11:25 *11:24 0.648581
55 *11:88 *11:25 3.40998
56 *11:90 *96:CK 4.49999
57 *11:87 *91:CK 4.49999
58 *11:88 *11:89 0.696408
59 *11:89 *11:90 1.64286
60 *11:79 *88:CK 4.49999
61 *11:87 *11:35 0.410736
62 *11:35 *11:89 0.82139
63 *11:31 *11:79 0.410736
64 *11:35 *11:34 5.29464293
65 *11:31 *11:30 1.64286
66 *11:32 *11:34 3.40998
67 *11:30 *11:38 0.82139
68 *11:33 *11:32 1.44137
69 *11:38 *11:37 2.00892
70 *11:37 *11:33 3.40998
71 *11:37 *11:36 0.866067
72 *11:40 *11:36 0.410736
73 *11:39 *90:CK 4.49999
74 *11:40 *11:39 0.82139
75 *11:46 *97:CK 4.49999
76 *11:39 *11:46 2.0536
77 *11:46 *11:80 0.410736
78 *11:80 *11:52 0.410736
79 *11:52 *11:51 2.87499
80 *11:81 *84:CK 4.49999
81 *11:51 *11:60 1.64286
82 *11:81 *11:59 0.410736
83 *11:60 *11:59 0.82139
84 *11:82 *86:CK 4.49999
85 *11:57 *92:CK 4.49999
86 *11:59 *11:58 1.40178
87 *11:58 *11:82 0.241077
88 *11:57 *11:56 1.40178
89 *11:83 *93:CK 4.49999
90 *11:55 *11:58 3.40998
91 *11:53 *11:56 3.40998
92 *11:76 *80:CK 4.49999
93 *11:83 *11:86 0.410736
94 *11:55 *11:54 0.242046
95 *11:54 *11:53 1.34345
96 *11:76 *11:75 0.544604
97 *11:75 *11:86 1.09818
98 *11:84 *11:54 3.40998
99 *11:73 *11:75 3.40998
100 *11:84 *11:85 1.14681
101 *11:74 *11:73 0.0462118
102 *11:74 *11:85 3.40998
103 *11:78 *11:74 0.0582495
*END

*D_NET *12 0.0205231

*CONN
*P *12 I *C 12.3 0 *L 0
*I *97:SE I *C 0.92 13.34 *L 0.00352 *D SDFFX1
*I *96:SE I *C 11.5 5.06 *L 0.00352 *D SDFFX1
*I *95:SE I *C 25.3 13.34 *L 0.00352 *D SDFFX1
*I *94:SE I *C 21.62 21.62 *L 0.00352 *D SDFFX1
*I *93:SE I *C 2.76 29.9 *L 0.00352 *D SDFFX1
*I *92:SE I *C 11.5 19.78 *L 0.00352 *D SDFFX1
*I *91:SE I *C 10.12 3.22 *L 0.00352 *D SDFFX1
*I *90:SE I *C 0.92 11.5 *L 0.00352 *D SDFFX1
*I *89:SE I *C 23.92 29.9 *L 0.00352 *D SDFFX1
*I *88:SE I *C 0.92 5.06 *L 0.00352 *D SDFFX1
*I *87:SE I *C 22.08 19.78 *L 0.00352 *D SDFFX1
*I *86:SE I *C 1.38 21.62 *L 0.00352 *D SDFFX1
*I *85:SE I *C 13.34 29.9 *L 0.00352 *D SDFFX1
*I *84:SE I *C 0.92 19.78 *L 0.00352 *D SDFFX1
*I *83:SE I *C 16.1 11.5 *L 0.00352 *D SDFFX1
*I *82:SE I *C 22.08 5.06 *L 0.00352 *D SDFFX1
*I *81:SE I *C 23.92 28.06 *L 0.00352 *D SDFFX1
*I *80:SE I *C 3.22 28.06 *L 0.00352 *D SDFFX1

*CAP
1 *12 0.000287123
2 *97:SE 6.78853e-05
3 *96:SE 6.78853e-05
4 *95:SE 6.78853e-05
5 *94:SE 6.78853e-05
6 *93:SE 6.78853e-05
7 *92:SE 6.78853e-05
8 *91:SE 6.78853e-05
9 *90:SE 6.78853e-05
10 *89:SE 6.78853e-05
11 *88:SE 6.78853e-05
12 *87:SE 6.78853e-05
13 *86:SE 6.78853e-05
14 *85:SE 6.78853e-05
15 *84:SE 6.78853e-05
16 *83:SE 6.78853e-05
17 *82:SE 6.78853e-05
18 *81:SE 6.78853e-05
19 *80:SE 6.78853e-05
20 *12:19 0.000323021
21 *12:20 0.000249324
22 *12:21 0.000211598
23 *12:22 0.0007934475
24 *12:23 0.000649178
25 *12:24 0.000134511
26 *12:25 6.71951e-05
27 *12:26 0.000195011
28 *12:27 0.000219565
29 *12:28 0.000196621
30 *12:29 0.000398764
31 *12:30 0.000278733
32 *12:31 0.000268308
33 *12:32 8.96783e-05
34 *12:33 0.00011474
35 *12:34 0.000100115
36 *12:35 6.38899e-05
37 *12:36 6.38899e-05
38 *12:37 0.000104764
39 *12:38 0.000104764
40 *12:39 9.22692e-05
41 *12:40 0.000110902
42 *12:41 9.46422e-05
43 *12:42 9.36373e-05
44 *12:43 0.000251274
45 *12:44 0.000286748
46 *12:45 0.000237144
47 *12:46 0.000154028
48 *12:47 0.000154028
49 *12:48 0.000233125
50 *12:49 0.000233125
51 *12:50 0.000130371
52 *12:51 8.88913e-05
53 *12:52 6.33208e-05
54 *12:53 6.39141e-05
55 *12:54 7.02704e-05
56 *12:55 0.000240329
57 *12:56 0.000264906
58 *12:57 6.05604e-05
59 *12:58 0.000135698
60 *12:59 0.000105769
61 *12:60 0.000630835
62 *12:61 0.000468853
63 *12:62 0.000247012
64 *12:63 0.000209152
65 *12:64 0.000171208
66 *12:65 0.000146631
67 *12:66 0.000706094
68 *12:67 0.000713637
69 *12:68 0.000118263
70 *12:69 0.000157455
71 *12:70 0.000154924
72 *12:71 0.000107197
73 *12:72 8.43874e-05
74 *12:73 8.16875e-05
75 *12:74 0.000322125
76 *12:75 0.000484386
77 *12:76 0.000484386
78 *12:77 0.00013002
79 *12:78 0.000205762
80 *12:79 0.000204624
81 *12:80 7.15295e-05
82 *12:81 6.98345e-05
83 *12:82 4.4482e-05
84 *12:83 0.000114764
85 *12:84 0.000112537
86 *12:85 6.66019e-05
87 *12:86 7.35514e-05
88 *12:87 0.000172637
89 *12:89 7.69051e-05
90 *12:90 6.94955e-05
91 *12:91 5.71946e-05
92 *12:92 4.38282e-05
93 *12:93 7.24013e-05
94 *12:94 0.000121532
95 *12:95 5.0693e-05
96 *12:96 0.000262497
97 *12:97 4.37555e-05
98 *12:98 0.000156389
99 *12:99 9.69668e-05
100 *12:75 *23:15 9.887e-05
101 *12:76 *23:16 9.887e-05
102 *12:75 *23:6 4.179e-05
103 *12:76 *23:7 4.179e-05
104 *12:96 *23:17 6.78e-06
105 *12:60 *23:18 6.78e-06
106 *12:60 *23:17 0.00011522
107 *12:61 *23:18 0.00011522
108 *12:83 *23:8 1.549e-05
109 *12:66 *23:9 1.549e-05
110 *12:66 *23:8 0.00017531
111 *12:67 *23:9 0.00017531
112 *12:19 *23:4 2.81e-06
113 *12:20 *23:5 2.81e-06
114 *12:62 *23:19 6.181e-05
115 *12:63 *23:20 6.18100155e-05
116 *12:60 *25:6 5.929e-05
117 *12:61 *25:7 5.929e-05
118 *12:62 *25:4 8.7e-06
119 *12:63 *25:5 8.7e-06
120 *12:62 *25:10 1.76e-06
121 *12:63 *25:9 1.76e-06
122 *12:68 *25:11 6.845e-05
123 *12:69 *25:10 6.845e-05
124 *12:68 *25:10 8.7e-06
125 *12:69 *25:9 8.7e-06
126 *12:64 *25:10 8.38e-06
127 *12:65 *25:9 8.38000699e-06
128 *12:30 *53:10 0.00031517
129 *12:31 *53:7 0.00031517
130 *12:35 *53:10 1.159e-05
131 *12:36 *53:7 1.159e-05
132 *12:44 *53:11 2.455e-05
133 *12:45 *53:9 2.45499849e-05
134 *12:32 *1:15 2.317e-05
135 *12:33 *1:16 2.317e-05
136 *12:33 *1:15 2.317e-05
137 *12:34 *1:16 2.317e-05
138 *12:30 *1:15 8.111e-05
139 *12:31 *1:16 8.111e-05
140 *12:35 *1:15 6.303e-05
141 *12:36 *1:16 6.303e-05
142 *12:37 *1:26 2.581e-05
143 *12:38 *1:25 2.581e-05
144 *12:37 *1:24 4.78e-06
145 *12:38 *1:23 4.78e-06
146 *12:26 *1:22 5.66e-06
147 *12:27 *1:21 5.66e-06
148 *12:39 *1:20 8.15e-06
149 *12:40 *1:19 8.15e-06
150 *12:41 *1:18 5.094e-05
151 *12:42 *1:17 5.094e-05
152 *12:29 *1:18 0.00015622
153 *12:43 *1:17 0.000156219988
154 *12:53 *18:16 6.249e-05
155 *12:54 *18:15 6.249e-05
156 *12:55 *18:16 5.162e-05
157 *12:56 *18:15 5.162e-05
158 *12:57 *18:10 3.124e-05
159 *12:58 *18:8 3.124e-05
160 *12:58 *18:10 0.00018407
161 *12:59 *18:8 0.00018407
162 *12:58 *18:8 3.4e-06
163 *12:59 *18:7 3.4e-06
164 *12:48 *18:8 8.38e-06
165 *12:49 *18:7 8.38000123e-06

*RES
1 *12:94 *96:SE 4.49998
2 *12:87 *12:94 1.23214
3 *12:24 *91:SE 4.49998
4 *12:24 *12:87 1.64283
5 *12 *12:74 0.382262
6 *12:25 *12:24 0.151762
7 *12:21 *12:74 3.40998
8 *12:22 *12:25 3.40998
9 *12:22 *12:21 0.341502
10 *12:23 *12:22 1.36924
11 *12:41 *12:23 3.40998
12 *12:42 *12:41 1.08038
13 *12:40 *88:SE 4.49998
14 *12:43 *12:42 0.821454
15 *12:40 *12:39 0.821454
16 *12:43 *12:29 4.51788
17 *12:29 *12:39 0.410689
18 *12:29 *12:28 3.28574
19 *12:47 *90:SE 4.49998
20 *12:28 *12:47 0.410689
21 *12:46 *97:SE 4.49998
22 *12:47 *12:46 2.46429
23 *12:49 *12:46 0.410689
24 *12:49 *12:48 4.92857122
25 *12:99 *82:SE 4.49998
26 *12:85 *83:SE 4.49998
27 *12:89 *84:SE 4.49998
28 *12:48 *12:89 0.410689
29 *12:99 *12:38 0.821454
30 *12:86 *12:85 0.187484
31 *12:89 *12:59 0.410689
32 *12:38 *12:37 1.23214
33 *12:31 *12:86 3.40998
34 *12:58 *86:SE 4.49998
35 *12:59 *12:58 2.46429
36 *12:37 *12:27 0.821454
37 *12:31 *12:30 1.00894
38 *12:58 *12:57 1.23214
39 *12:27 *12:26 2.87497
40 *12:36 *12:30 0.0955843
41 *12:57 *12:90 0.410689
42 *12:26 *12:52 0.410689
43 *12:36 *12:35 0.144166
44 *12:54 *92:SE 4.49998
45 *12:90 *12:91 0.821454
46 *12:52 *12:51 0.633895
47 *12:35 *12:34 0.0955843
48 *12:54 *12:53 0.821454
49 *12:91 *12:65 0.205382
50 *12:33 *12:51 3.40998
51 *12:34 *12:33 0.144166
52 *12:56 *12:53 0.616071
53 *12:65 *12:64 2.87497
54 *12:93 *80:SE 4.49998
55 *12:33 *12:32 0.144166
56 *12:56 *12:55 3.28574
57 *12:64 *12:69 0.616071
58 *12:69 *12:93 0.410689
59 *12:92 *93:SE 4.49998
60 *12:45 *12:32 3.40998
61 *12:63 *12:55 0.205382
62 *12:69 *12:68 2.45534
63 *12:68 *12:92 0.00894928
64 *12:44 *95:SE 4.49998
65 *12:45 *12:44 2.65177
66 *12:97 *85:SE 4.49998
67 *12:63 *12:62 4.91962
68 *12:61 *12:68 3.40998
69 *12:44 *12:50 1.64283
70 *12:95 *12:97 0.00894928
71 *12:60 *12:62 3.40998
72 *12:61 *12:60 1.22515
73 *12:20 *12:50 0.821454
74 *12:96 *12:95 3.40998
75 *12:60 *12:96 0.432423
76 *12:71 *81:SE 4.49998
77 *12:84 *89:SE 4.49998
78 *12:20 *12:19 3.28574
79 *12:96 *12:98 0.144166
80 *12:71 *12:70 0.544628
81 *12:70 *12:84 1.0982
82 *12:79 *12:19 2.0536
83 *12:67 *12:98 0.191169
84 *12:83 *12:70 3.40998
85 *12:78 *87:SE 4.49998
86 *12:79 *12:78 0.821454
87 *12:67 *12:66 1.23455
88 *12:66 *12:83 0.278857
89 *12:78 *12:77 1.23214
90 *12:75 *12:66 3.40998
91 *12:82 *12:77 0.410689
92 *12:80 *94:SE 4.49998
93 *12:76 *12:75 1.14679
94 *12:82 *12:81 0.16966
95 *12:81 *12:80 0.241104
96 *12:72 *12:76 3.40998
97 *12:73 *12:81 3.40998
98 *12:73 *12:72 0.081446
99 *12:88 *12:73 0.0365492
*END

*D_NET *13 0.00072712

*CONN
*P *13 I *C 10.455 0 *L 0
*I *91:SI I *C 11.5 1.84 *L 0.0018 *D SDFFX1

*CAP
1 *13 0.000144509
2 *91:SI 6.78799e-05
3 *13:2 0.0001218
4 *13:3 0.000179520195
5 *13:4 5.06196e-05
6 *13:5 0.00011911
7 *13:6 4.36809e-05

*RES
1 *13:6 *91:SI 4.5
2 *13:4 *13:6 0.00892639
3 *13:5 *13:4 3.41002
4 *13:2 *13:5 0.163696
5 *13:3 *13:2 3.41002
6 *13 *13:3 0.191162
*END

*D_NET *14 0.000675412

*CONN
*P *14 O *C 0.615 0 *L 1
*I *67:Y O *C 2.3 3.22 *L 0 *D BUFX16

*CAP
1 *14 4.53214e-05
2 *67:Y 6.78796e-05
3 *14:3 0.00011203
4 *14:4 8.00595e-05
5 *14:5 0.00010172
6 *14:6 4.653e-05
7 *14:7 7.21002e-05
8 *14:8 7.73688e-05
9 *14:9 7.23994e-05

*RES
1 *14 *14:3 0.0963364
2 *14:9 *67:Y 4.5
3 *14:3 *14:5 0.191162
4 *14:6 *14:9 0.410683
5 *14:4 *14:5 3.41002
6 *14:6 *14:7 0.401756
7 *14:4 *14:8 0.0955811
8 *14:8 *14:7 3.41002
9 *14:2 *14:8 0.127991
*END

*D_NET *15 0.00520792

*CONN
*I *98:B I *C 18.86 28.06 *L 0.0018 *D MX2X1
*I *87:D I *C 22.08 18.4 *L 0.00187 *D SDFFX1
*I *87:Q O *C 30.36 19.78 *L 0 *D SDFFX1
*I *85:SI I *C 14.72 31.28 *L 0.0018 *D SDFFX1

*CAP
1 *98:B 6.7882e-05
2 *87:D 6.7882e-05
3 *87:Q 6.7882e-05
4 *85:SI 6.7882e-05
5 *15:4 0.000162372
6 *15:5 0.00010986
7 *15:6 0.00022391
8 *15:7 0.00012565
9 *15:8 0.000160558
10 *15:9 0.00024566
11 *15:10 0.000252403
12 *15:11 0.00026283
13 *15:12 5.93328e-05
14 *15:13 0.000106759
15 *15:14 8.11896e-05
16 *15:15 0.000241321
17 *15:16 0.00024401
18 *15:17 0.00046612
19 *15:18 0.000455693
20 *15:20 0.000121532
21 *15:21 9.518e-05
22 *15:22 7.16232e-05
23 *15:23 7.30529e-05
24 *15:24 0.000333628
25 *15:25 7.57414e-05
26 *15:26 0.000333628
27 *15:27 8.00516e-05
28 *15:28 7.23985e-05
29 *15:29 7.23985e-05
30 *15:4 *61:6 4.853e-05
31 *15:5 *61:5 4.853e-05
32 *15:6 *61:6 0.00015622
33 *15:7 *61:5 0.000156219994

*RES
1 *15:29 *87:Q 4.5
2 *15:14 *15:29 0.410683
3 *15:14 *15:13 0.85714
4 *15:10 *15:13 3.41002