*SPEF "ieee 1481-1999"
*DESIGN "clb"
*DATE "01:13:15 Wednesday April 08, 2026"
*VENDOR "The OpenROAD Project"
*PROGRAM "OpenROAD"
*VERSION "dcf36133a369abc8f3c5e5738cd4d82e4903c0e0"
*DESIGN_FLOW "NAME_SCOPE LOCAL" "PIN_CAP NONE"
*DIVIDER /
*DELIMITER :
*BUS_DELIMITER []
*T_UNIT 1 NS
*C_UNIT 1 PF
*R_UNIT 1 OHM
*L_UNIT 1 HENRY

*NAME_MAP
*3 addr[0]
*4 addr[1]
*5 addr[2]
*6 addr[3]
*7 clk
*8 mux
*9 q
*10 scan_clk
*11 scan_en
*12 scan_in
*13 scan_out
*14 x
*15 _00_
*16 _01_
*17 _02_
*18 _03_
*19 _04_
*20 _05_
*21 _06_
*22 _07_
*23 _08_
*24 _09_
*25 _10_
*26 _11_
*27 _12_
*28 _13_
*29 _14_
*30 _15_
*31 _16_
*32 _17_
*33 _18_
*34 _19_
*35 _20_
*36 _21_
*37 _22_
*38 _23_
*39 _24_
*40 _25_
*41 _26_
*42 _27_
*43 _28_
*44 clknet_0_scan_clk
*45 clknet_1_0__leaf_scan_clk
*46 clknet_1_1__leaf_scan_clk
*47 mem\[0\]
*48 mem\[10\]
*49 mem\[11\]
*50 mem\[12\]
*51 mem\[13\]
*52 mem\[14\]
*53 mem\[15\]
*54 mem\[1\]
*55 mem\[2\]
*56 mem\[3\]
*57 mem\[4\]
*58 mem\[5\]
*59 mem\[6\]
*60 mem\[7\]
*61 mem\[8\]
*62 mem\[9\]
*63 net1
*64 net10
*65 net11
*66 net12
*67 net13
*68 net14
*69 net15
*70 net16
*71 net17
*72 net18
*73 net19
*74 net2
*75 net20
*76 net21
*77 net22
*78 net23
*79 net24
*80 net25
*81 net26
*82 net27
*83 net28
*84 net29
*85 net3
*86 net30
*87 net31
*88 net32
*89 net33
*90 net34
*91 net35
*92 net36
*93 net37
*94 net4
*95 net5
*96 net6
*97 net7
*98 net8
*99 net9
*100 q_control
*101 FILLER_0_55
*102 FILLER_10_24
*103 FILLER_10_27
*104 FILLER_10_3
*105 FILLER_10_61
*106 FILLER_10_64
*107 FILLER_11_19
*108 FILLER_11_22
*109 FILLER_11_31
*110 FILLER_11_34
*111 FILLER_11_43
*112 FILLER_11_46
*113 FILLER_11_55
*114 FILLER_11_65
*115 FILLER_12_14
*116 FILLER_12_23
*117 FILLER_12_26
*118 FILLER_12_29
*119 FILLER_12_3
*120 FILLER_12_32
*121 FILLER_12_51
*122 FILLER_12_54
*123 FILLER_12_57
*124 FILLER_12_74
*125 FILLER_13_27
*126 FILLER_13_45
*127 FILLER_13_48
*128 FILLER_13_51
*129 FILLER_13_54
*130 FILLER_13_57
*131 FILLER_13_60
*132 FILLER_13_63
*133 FILLER_13_66
*134 FILLER_1_54
*135 FILLER_1_82
*136 FILLER_2_62
*137 FILLER_2_80
*138 FILLER_3_3
*139 FILLER_3_35
*140 FILLER_3_54
*141 FILLER_3_6
*142 FILLER_3_82
*143 FILLER_4_22
*144 FILLER_4_29
*145 FILLER_4_3
*146 FILLER_5_3
*147 FILLER_5_54
*148 FILLER_5_6
*149 FILLER_5_77
*150 FILLER_5_80
*151 FILLER_6_27
*152 FILLER_6_3
*153 FILLER_6_38
*154 FILLER_6_6
*155 FILLER_6_78
*156 FILLER_6_81
*157 FILLER_7_3
*158 FILLER_7_35
*159 FILLER_7_55
*160 FILLER_7_6
*161 FILLER_7_60
*162 FILLER_7_80
*163 FILLER_8_55
*164 FILLER_8_82
*165 FILLER_9_54
*166 PHY_EDGE_ROW_0_Left_14
*167 PHY_EDGE_ROW_0_Right_0
*168 PHY_EDGE_ROW_10_Left_24
*169 PHY_EDGE_ROW_10_Right_10
*170 PHY_EDGE_ROW_11_Left_25
*171 PHY_EDGE_ROW_11_Right_11
*172 PHY_EDGE_ROW_12_Left_26
*173 PHY_EDGE_ROW_12_Right_12
*174 PHY_EDGE_ROW_13_Left_27
*175 PHY_EDGE_ROW_13_Right_13
*176 PHY_EDGE_ROW_1_Left_15
*177 PHY_EDGE_ROW_1_Right_1
*178 PHY_EDGE_ROW_2_Left_16
*179 PHY_EDGE_ROW_2_Right_2
*180 PHY_EDGE_ROW_3_Left_17
*181 PHY_EDGE_ROW_3_Right_3
*182 PHY_EDGE_ROW_4_Left_18
*183 PHY_EDGE_ROW_4_Right_4
*184 PHY_EDGE_ROW_5_Left_19
*185 PHY_EDGE_ROW_5_Right_5
*186 PHY_EDGE_ROW_6_Left_20
*187 PHY_EDGE_ROW_6_Right_6
*188 PHY_EDGE_ROW_7_Left_21
*189 PHY_EDGE_ROW_7_Right_7
*190 PHY_EDGE_ROW_8_Left_22
*191 PHY_EDGE_ROW_8_Right_8
*192 PHY_EDGE_ROW_9_Left_23
*193 PHY_EDGE_ROW_9_Right_9
*194 TAP_TAPCELL_ROW_0_28
*195 TAP_TAPCELL_ROW_0_29
*196 TAP_TAPCELL_ROW_10_39
*197 TAP_TAPCELL_ROW_11_40
*198 TAP_TAPCELL_ROW_12_41
*199 TAP_TAPCELL_ROW_13_42
*200 TAP_TAPCELL_ROW_13_43
*201 TAP_TAPCELL_ROW_1_30
*202 TAP_TAPCELL_ROW_2_31
*203 TAP_TAPCELL_ROW_3_32
*204 TAP_TAPCELL_ROW_4_33
*205 TAP_TAPCELL_ROW_5_34
*206 TAP_TAPCELL_ROW_6_35
*207 TAP_TAPCELL_ROW_7_36
*208 TAP_TAPCELL_ROW_8_37
*209 TAP_TAPCELL_ROW_9_38
*210 _29_
*211 _30_
*212 _31_
*213 _32_
*214 _33_
*215 _34_
*216 _35_
*217 _36_
*218 _37_
*219 _38_
*220 _39_
*221 _40_
*222 _41_
*223 _42_
*224 _43_
*225 _44_
*226 _45_
*227 _46_
*228 _47_
*229 _48_
*230 _49_
*231 _50_
*232 _51_
*233 _52_
*234 _53_
*235 _54_
*236 _55_
*237 _56_
*238 _57_
*239 _58_
*240 _59_
*241 _60_
*242 _61_
*243 _62_
*244 _63_
*245 _64_
*246 _65_
*247 _66_
*248 _67_
*249 _68_
*250 _69_
*251 _70_
*252 _71_
*253 _72_
*254 _73_
*255 _74_
*256 _75_
*257 _76_
*258 _77_
*259 clkbuf_0_scan_clk
*260 clkbuf_1_0__f_scan_clk
*261 clkbuf_1_1__f_scan_clk
*262 fanout12
*263 fanout13
*264 hold14
*265 hold15
*266 hold16
*267 hold17
*268 hold18
*269 hold19
*270 hold20
*271 hold21
*272 hold22
*273 hold23
*274 hold24
*275 hold25
*276 hold26
*277 hold27
*278 hold28
*279 hold29
*280 hold30
*281 hold31
*282 hold32
*283 hold33
*284 hold34
*285 hold35
*286 hold36
*287 hold37
*288 input1
*289 input2
*290 input3
*291 input4
*292 input5
*293 input6
*294 input7
*295 input8
*296 output10
*297 output11
*298 output9

*PORTS
addr[0] I
addr[1] I
addr[2] I
addr[3] I
clk I
mux O
q O
scan_clk I
scan_en I
scan_in I
scan_out O
x I

*D_NET *3 0.00197193
*CONN
*P addr[0] I
*I *288:A I *D sky130_fd_sc_hd__clkdlybuf4s25_1
*CAP
1 addr[0] 0.000909331
2 *288:A 0.000909331
3 *288:A *289:A 9.81149e-05
4 *288:A *293:A 5.51545e-05
5 *288:A *10:18 0
*RES
1 addr[0] *288:A 19.4407 
*END

*D_NET *4 0.00227266
*CONN
*P addr[1] I
*I *289:A I *D sky130_fd_sc_hd__clkdlybuf4s25_1
*CAP
1 addr[1] 0.000841343
2 *289:A 0.000841343
3 *289:A *248:D 0
4 *289:A *293:A 0.000238262
5 *289:A *10:18 0.000228601
6 *289:A *96:6 2.49909e-05
7 *288:A *289:A 9.81149e-05
*RES
1 addr[1] *289:A 16.6651 
*END

*D_NET *5 0.00624827
*CONN
*P addr[2] I
*I *290:A I *D sky130_fd_sc_hd__clkdlybuf4s25_1
*CAP
1 addr[2] 0.00201902
2 *290:A 0.00201902
3 *290:A *231:A0 0
4 *290:A *231:A1 0.000254888
5 *290:A *231:S 0.000159957
6 *290:A *237:A0 0
7 *290:A *238:A0 0.000355465
8 *290:A *255:D 0.000133453
9 *290:A *258:CLK 0.00119527
10 *290:A *272:A 0
11 *290:A *294:A 8.65905e-05
12 *290:A *77:12 2.46089e-05
13 *290:A *85:12 0
14 *290:A *94:18 0
*RES
1 addr[2] *290:A 49.675 
*END

*D_NET *6 0.00352748
*CONN
*P addr[3] I
*I *291:A I *D sky130_fd_sc_hd__clkdlybuf4s25_1
*CAP
1 addr[3] 0.00112761
2 *291:A 0.00112761
3 *291:A q 0.000232888
4 *291:A scan_out 0
5 *291:A *278:A 0
6 *291:A *292:A 0.000629625
7 *291:A *294:A 0.000208239
8 *291:A *295:A 0
9 *291:A *296:A 0.000201503
*RES
1 addr[3] *291:A 27.3187 
*END

*D_NET *7 0.0029285
*CONN
*P clk I
*I *292:A I *D sky130_fd_sc_hd__clkdlybuf4s25_1
*CAP
1 clk 0.000812106
2 *292:A 0.000812106
3 *292:A mux 8.44837e-05
4 *292:A q 6.71985e-05
5 *292:A scan_out 0.000198939
6 *292:A *294:A 0
7 *292:A *295:A 8.68061e-05
8 *292:A *297:A 0.000237238
9 *291:A *292:A 0.000629625
*RES
1 clk *292:A 20.6252 
*END

*D_NET *8 0.00171211
*CONN
*P mux O
*I *298:X O *D sky130_fd_sc_hd__clkdlybuf4s25_1
*CAP
1 mux 0.000371998
2 *298:X 0.000371998
3 mux scan_out 0.000106405
4 mux *294:A 0.000369697
5 mux *295:A 8.35781e-05
6 mux *296:A 6.96278e-05
7 mux *65:10 0.000135794
8 mux *65:21 0.000118527
9 *292:A mux 8.44837e-05
*RES
1 *298:X mux 9.33653 
*END

*D_NET *9 0.0030535
*CONN
*P q O
*I *296:X O *D sky130_fd_sc_hd__clkdlybuf4s25_1
*CAP
1 q 0.000980092
2 *296:X 0.000980092
3 q scan_out 9.14038e-05
4 q *295:A 0.00070182
5 *291:A q 0.000232888
6 *292:A q 6.71985e-05
*RES
1 *296:X q 24.3891 
*END

*D_NET *10 0.00403628
*CONN
*P scan_clk I
*I *259:A I *D sky130_fd_sc_hd__clkbuf_16
*CAP
1 scan_clk 0.00163606
2 *259:A 9.60757e-05
3 *10:18 0.00173214
4 *259:A *247:CLK 5.22278e-06
5 *259:A *247:D 5.83121e-06
6 *10:18 *248:D 0
7 *10:18 *293:A 0.000255535
8 *10:18 *44:33 3.70011e-05
9 *10:18 *45:10 0
10 *10:18 *61:10 3.98058e-05
11 *288:A *10:18 0
12 *289:A *10:18 0.000228601
*RES
1 scan_clk *10:18 12.0994 
2 *10:18 *259:A 4.755 
*END

*D_NET *11 0.00154724
*CONN
*P scan_en I
*I *293:A I *D sky130_fd_sc_hd__clkdlybuf4s25_1
*CAP
1 scan_en 0.000418984
2 *293:A 0.000418984
3 *293:A *245:D 0.000141938
4 *293:A *248:D 1.83805e-05
5 *288:A *293:A 5.51545e-05
6 *289:A *293:A 0.000238262
7 *10:18 *293:A 0.000255535
*RES
1 scan_en *293:A 10.0616 
*END

*D_NET *12 0.00399298
*CONN
*P scan_in I
*I *294:A I *D sky130_fd_sc_hd__clkdlybuf4s25_1
*CAP
1 scan_in 0.00140547
2 *294:A 0.00140547
3 *294:A *239:A0 4.82919e-05
4 *294:A *278:A 7.71016e-05
5 *294:A *296:A 0.000151984
6 *294:A *65:21 0.000240144
7 *294:A *100:23 0
8 mux *294:A 0.000369697
9 *290:A *294:A 8.65905e-05
10 *291:A *294:A 0.000208239
11 *292:A *294:A 0
*RES
1 scan_in *294:A 27.4283 
*END

*D_NET *13 0.00208967
*CONN
*P scan_out O
*I *297:X O *D sky130_fd_sc_hd__clkdlybuf4s25_1
*CAP
1 scan_out 0.000584048
2 *297:X 0.000584048
3 scan_out *295:A 0.000524828
4 mux scan_out 0.000106405
5 q scan_out 9.14038e-05
6 *291:A scan_out 0
7 *292:A scan_out 0.000198939
*RES
1 *297:X scan_out 15.9106 
*END

*D_NET *14 0.00237803
*CONN
*P x I
*I *295:A I *D sky130_fd_sc_hd__clkdlybuf4s25_1
*CAP
1 x 0.000490498
2 *295:A 0.000490498
3 mux *295:A 8.35781e-05
4 q *295:A 0.00070182
5 scan_out *295:A 0.000524828
6 *291:A *295:A 0
7 *292:A *295:A 8.68061e-05
*RES
1 x *295:A 16.4523 
*END

*D_NET *15 0.000290651
*CONN
*I *258:D I *D sky130_fd_sc_hd__dfxtp_2
*I *220:X O *D sky130_fd_sc_hd__mux2_1
*CAP
1 *258:D 0.000100096
2 *220:X 0.000100096
3 *258:D *220:A1 1.16578e-05
4 *258:D *255:D 1.75818e-05
5 *258:D *258:CLK 4.99619e-05
6 *258:D *85:33 1.12578e-05
*RES
1 *220:X *258:D 4.92875 
*END

*D_NET *16 0.00058419
*CONN
*I *240:D I *D sky130_fd_sc_hd__dfxtp_2
*I *222:X O *D sky130_fd_sc_hd__mux2_1
*CAP
1 *240:D 5.90634e-05
2 *222:X 5.90634e-05
3 *240:D *214:A3 7.14707e-05
4 *240:D *237:A1 0.000161496
5 *240:D *46:75 7.03046e-05
6 *240:D *91:10 0.000162792
*RES
1 *222:X *240:D 9.76875 
*END

*D_NET *17 0.00169308
*CONN
*I *267:A I *D sky130_fd_sc_hd__dlygate4sd3_1
*I *223:X O *D sky130_fd_sc_hd__mux2_1
*CAP
1 *267:A 0.000369368
2 *223:X 0.000369368
3 *267:A *213:B 8.34502e-05
4 *267:A *214:S0 0.000196669
5 *267:A *215:A2 0.000238202
6 *267:A *224:A1 4.21579e-05
7 *267:A *224:S 8.46768e-05
8 *267:A *241:D 0.000115696
9 *267:A *46:81 0.000193495
*RES
1 *223:X *267:A 15.33 
*END

*D_NET *18 0.00141588
*CONN
*I *271:A I *D sky130_fd_sc_hd__dlygate4sd3_1
*I *224:X O *D sky130_fd_sc_hd__mux2_1
*CAP
1 *271:A 0.00034917
2 *224:X 0.00034917
3 *271:A *219:A1 1.56428e-05
4 *271:A *225:A0 0
5 *271:A *225:A1 0
6 *271:A *241:D 0.000121023
7 *271:A *242:CLK 0.000188306
8 *271:A *242:D 9.47454e-05
9 *271:A *263:A 8.53113e-06
10 *271:A *277:A 0.000116853
11 *271:A *46:81 5.87002e-05
12 *271:A *50:27 0.000113735
*RES
1 *224:X *271:A 14.805 
*END

*D_NET *19 0.00134764
*CONN
*I *243:D I *D sky130_fd_sc_hd__dfxtp_2
*I *225:X O *D sky130_fd_sc_hd__mux2_1
*CAP
1 *243:D 0.000306147
2 *225:X 0.000306147
3 *243:D *273:A 9.15595e-05
4 *243:D *279:A 0.000330048
5 *243:D *61:10 0.000160266
6 *243:D *62:10 7.76353e-05
7 *243:D *62:23 7.58309e-05
*RES
1 *225:X *243:D 15.1237 
*END

*D_NET *20 0.000936456
*CONN
*I *244:D I *D sky130_fd_sc_hd__dfxtp_2
*I *226:X O *D sky130_fd_sc_hd__mux2_1
*CAP
1 *244:D 0.000119542
2 *226:X 0.000119542
3 *244:D *226:S 4.66108e-05
4 *244:D *227:A1 0.000318514
5 *244:D *268:A 0.000317158
6 *244:D *62:23 1.50897e-05
*RES
1 *226:X *244:D 11.4637 
*END

*D_NET *21 0.00114689
*CONN
*I *265:A I *D sky130_fd_sc_hd__dlygate4sd3_1
*I *227:X O *D sky130_fd_sc_hd__mux2_1
*CAP
1 *265:A 0.000279798
2 *227:X 0.000279798
3 *265:A *268:A 0.000165068
4 *265:A *66:8 0.000293733
5 *265:A *66:22 8.73389e-06
6 *265:A *84:14 0.000119762
*RES
1 *227:X *265:A 12.795 
*END

*D_NET *22 0.00107033
*CONN
*I *246:D I *D sky130_fd_sc_hd__dfxtp_2
*I *228:X O *D sky130_fd_sc_hd__mux2_1
*CAP
1 *246:D 0.000156645
2 *228:X 0.000156645
3 *246:D *269:A 0.000267421
4 *246:D *66:26 0.00030613
5 *246:D *66:32 0.000183487
*RES
1 *228:X *246:D 13.0538 
*END

*D_NET *23 0.00125508
*CONN
*I *247:D I *D sky130_fd_sc_hd__dfxtp_2
*I *229:X O *D sky130_fd_sc_hd__mux2_1
*CAP
1 *247:D 0.000441799
2 *229:X 0.000441799
3 *247:D *215:A2 0
4 *247:D *217:A0 0.00015829
5 *247:D *218:A1 6.70947e-05
6 *247:D *44:33 1.05476e-05
7 *247:D *58:10 0
8 *247:D *61:10 4.14516e-05
9 *247:D *66:46 8.8266e-05
10 *247:D *72:10 0
11 *259:A *247:D 5.83121e-06
*RES
1 *229:X *247:D 14.985 
*END

*D_NET *24 0.00667992
*CONN
*I *269:A I *D sky130_fd_sc_hd__dlygate4sd3_1
*I *230:X O *D sky130_fd_sc_hd__mux2_1
*CAP
1 *269:A 0.00159555
2 *230:X 0.00159555
3 *269:A *217:A3 6.71882e-05
4 *269:A *227:A1 3.47668e-05
5 *269:A *229:A0 0.000604194
6 *269:A *230:A1 3.73232e-05
7 *269:A *243:CLK 9.16314e-05
8 *269:A *248:D 0.000155131
9 *269:A *268:A 0
10 *269:A *285:A 0.000422842
11 *269:A *287:A 9.67745e-05
12 *269:A *45:81 0.00028011
13 *269:A *45:90 0.000131821
14 *269:A *66:8 0.000394906
15 *269:A *66:16 4.66724e-05
16 *269:A *66:26 1.44983e-05
17 *269:A *66:32 7.33552e-05
18 *269:A *66:46 0.000193801
19 *269:A *84:14 0.000576377
20 *246:D *269:A 0.000267421
*RES
1 *230:X *269:A 45.73 
*END

*D_NET *25 0.00385274
*CONN
*I *249:D I *D sky130_fd_sc_hd__dfxtp_2
*I *231:X O *D sky130_fd_sc_hd__mux2_1
*CAP
1 *249:D 0.000984938
2 *231:X 0.000984938
3 *249:D *235:A0 0.000116713
4 *249:D *236:A0 6.90876e-05
5 *249:D *236:S 4.82863e-05
6 *249:D *251:CLK 4.82919e-05
7 *249:D *251:D 8.63292e-05
8 *249:D *252:CLK 0.000118207
9 *249:D *253:D 0.000200615
10 *249:D *254:D 8.8266e-05
11 *249:D *274:A 0.000311282
12 *249:D *284:A 0.000173517
13 *249:D *45:40 0.000103036
14 *249:D *56:10 4.89295e-05
15 *249:D *59:14 5.45499e-05
16 *249:D *67:44 0.000353049
17 *249:D *81:14 6.27029e-05
*RES
1 *231:X *249:D 27.105 
*END

*D_NET *26 0.00341354
*CONN
*I *250:D I *D sky130_fd_sc_hd__dfxtp_2
*I *232:X O *D sky130_fd_sc_hd__mux2_1
*CAP
1 *250:D 0.000740537
2 *232:X 0.000740537
3 *250:D *213:A 0.000295412
4 *250:D *219:A1 0.000127646
5 *250:D *219:B1 4.77719e-05
6 *250:D *229:A0 3.85884e-05
7 *250:D *230:A0 0.000270817
8 *250:D *252:CLK 1.43717e-05
9 *250:D *252:D 0.000282455
10 *250:D *268:A 0.000136884
11 *250:D *284:A 1.54049e-05
12 *250:D *285:A 9.30717e-05
13 *250:D *45:14 0
14 *250:D *45:20 0
15 *250:D *60:10 0.00013521
16 *250:D *62:10 0.000110068
17 *250:D *66:46 9.30717e-05
18 *250:D *85:33 0.000271694
*RES
1 *232:X *250:D 25.5187 
*END

*D_NET *27 0.00423232
*CONN
*I *284:A I *D sky130_fd_sc_hd__dlygate4sd3_1
*I *233:X O *D sky130_fd_sc_hd__mux2_1
*CAP
1 *284:A 0.001101
2 *233:X 0.001101
3 *284:A *233:A1 9.1729e-05
4 *284:A *235:A0 0.000162764
5 *284:A *252:CLK 0.000637741
6 *284:A *252:D 0.000612318
7 *284:A *253:D 3.10407e-05
8 *284:A *45:20 0.00025274
9 *284:A *66:103 5.30673e-05
10 *249:D *284:A 0.000173517
11 *250:D *284:A 1.54049e-05
*RES
1 *233:X *284:A 29.325 
*END

*D_NET *28 0.00312868
*CONN
*I *252:D I *D sky130_fd_sc_hd__dfxtp_2
*I *234:X O *D sky130_fd_sc_hd__mux2_1
*CAP
1 *252:D 0.000817945
2 *234:X 0.000817945
3 *252:D *217:S0 0.000115774
4 *252:D *219:A1 9.44334e-05
5 *252:D *234:A1 0
6 *252:D *285:A 0.000244887
7 *252:D *58:10 0
8 *252:D *59:14 5.1518e-05
9 *252:D *66:46 9.14049e-05
10 *250:D *252:D 0.000282455
11 *284:A *252:D 0.000612318
*RES
1 *234:X *252:D 23.52 
*END

*D_NET *29 0.000847959
*CONN
*I *253:D I *D sky130_fd_sc_hd__dfxtp_2
*I *235:X O *D sky130_fd_sc_hd__mux2_1
*CAP
1 *253:D 0.000229755
2 *235:X 0.000229755
3 *253:D *233:A1 7.82635e-05
4 *253:D *253:CLK 8.53113e-06
5 *253:D *254:D 0
6 *253:D *67:35 6.99988e-05
7 *249:D *253:D 0.000200615
8 *284:A *253:D 3.10407e-05
*RES
1 *235:X *253:D 11.385 
*END

*D_NET *30 0.000693176
*CONN
*I *254:D I *D sky130_fd_sc_hd__dfxtp_2
*I *236:X O *D sky130_fd_sc_hd__mux2_1
*CAP
1 *254:D 0.000242784
2 *236:X 0.000242784
3 *254:D *215:B1 3.59531e-06
4 *254:D *253:CLK 0
5 *254:D *254:CLK 1.43717e-05
6 *254:D *56:10 5.36955e-05
7 *254:D *56:23 3.3308e-05
8 *254:D *66:103 1.43717e-05
9 *249:D *254:D 8.8266e-05
10 *253:D *254:D 0
*RES
1 *236:X *254:D 11.2987 
*END

*D_NET *31 0.00192685
*CONN
*I *255:D I *D sky130_fd_sc_hd__dfxtp_2
*I *237:X O *D sky130_fd_sc_hd__mux2_1
*CAP
1 *255:D 0.000509483
2 *237:X 0.000509483
3 *255:D *220:S 6.36139e-05
4 *255:D *231:A1 0.000302174
5 *255:D *258:CLK 1.34503e-05
6 *255:D *85:33 0.000377614
7 *258:D *255:D 1.75818e-05
8 *290:A *255:D 0.000133453
*RES
1 *237:X *255:D 15.6337 
*END

*D_NET *32 0.000503261
*CONN
*I *275:A I *D sky130_fd_sc_hd__dlygate4sd3_1
*I *238:X O *D sky130_fd_sc_hd__mux2_1
*CAP
1 *275:A 0.000140612
2 *238:X 0.000140612
3 *275:A *231:A0 6.20388e-05
4 *275:A *238:A0 0.000116171
5 *275:A *238:S 4.38278e-05
*RES
1 *238:X *275:A 9.72 
*END

*D_NET *33 0.000649438
*CONN
*I *257:D I *D sky130_fd_sc_hd__dfxtp_2
*I *239:X O *D sky130_fd_sc_hd__mux2_1
*CAP
1 *257:D 9.37214e-05
2 *239:X 9.37214e-05
3 *257:D *220:A1 0.000112714
4 *257:D *258:CLK 0.000264458
5 *257:D *94:18 8.48235e-05
*RES
1 *239:X *257:D 10.5037 
*END

*D_NET *34 0.00205257
*CONN
*I *215:A1 I *D sky130_fd_sc_hd__o21a_2
*I *210:Y O *D sky130_fd_sc_hd__inv_2
*CAP
1 *215:A1 0.00064957
2 *210:Y 0.00064957
3 *215:A1 *215:B1 6.52188e-05
4 *215:A1 *218:A0 1.07797e-05
5 *215:A1 *231:A1 4.90227e-05
6 *215:A1 *232:A0 1.43203e-05
7 *215:A1 *254:CLK 0.000118519
8 *215:A1 *286:A 0.000279744
9 *215:A1 *66:57 0
10 *215:A1 *67:31 6.32678e-05
11 *215:A1 *67:35 0.00015256
*RES
1 *210:Y *215:A1 18.27 
*END

*D_NET *35 0.00171977
*CONN
*I *219:B2 I *D sky130_fd_sc_hd__a22o_2
*I *211:Y O *D sky130_fd_sc_hd__inv_2
*CAP
1 *219:B2 0.000294352
2 *211:Y 0.000294352
3 *219:B2 *223:A0 0.000192509
4 *219:B2 *223:A1 9.8308e-05
5 *219:B2 *266:A 0.00037217
6 *219:B2 *270:A 0.000115464
7 *219:B2 *51:8 0.000263354
8 *219:B2 *52:10 8.9257e-05
*RES
1 *211:Y *219:B2 14.49 
*END

*D_NET *36 0.00274548
*CONN
*I *213:B I *D sky130_fd_sc_hd__or2_2
*I *212:X O *D sky130_fd_sc_hd__mux4_2
*CAP
1 *213:B 0.000510163
2 *212:X 0.000510163
3 *213:B *213:A 0.000201503
4 *213:B *215:A2 0.000510555
5 *213:B *218:A0 0.00019898
6 *213:B *219:A2 0.000118407
7 *213:B *247:CLK 0.000240149
8 *213:B *46:81 0.000111293
9 *213:B *85:33 0.000260818
10 *267:A *213:B 8.34502e-05
*RES
1 *212:X *213:B 19.335 
*END

*D_NET *37 0.00614612
*CONN
*I *219:A1 I *D sky130_fd_sc_hd__a22o_2
*I *213:X O *D sky130_fd_sc_hd__or2_2
*CAP
1 *219:A1 0.00156632
2 *213:X 0.00156632
3 *219:A1 *217:S0 0.000477972
4 *219:A1 *219:A2 9.65944e-05
5 *219:A1 *263:A 7.65948e-05
6 *219:A1 *285:A 0.00096113
7 *219:A1 *62:10 0.000122331
8 *219:A1 *63:10 0.000327586
9 *219:A1 *84:14 0.000713547
10 *250:D *219:A1 0.000127646
11 *252:D *219:A1 9.44334e-05
12 *271:A *219:A1 1.56428e-05
*RES
1 *213:X *219:A1 36.405 
*END

*D_NET *38 0.00282365
*CONN
*I *215:A2 I *D sky130_fd_sc_hd__o21a_2
*I *214:X O *D sky130_fd_sc_hd__mux4_2
*CAP
1 *215:A2 0.000690488
2 *214:X 0.000690488
3 *215:A2 *214:S0 7.1284e-05
4 *215:A2 *215:B1 3.51072e-05
5 *215:A2 *216:A2 9.37041e-05
6 *215:A2 *219:A2 1.88602e-05
7 *215:A2 *225:S 0.000151941
8 *215:A2 *241:D 0.000272305
9 *215:A2 *46:79 1.08758e-05
10 *215:A2 *46:81 2.0794e-05
11 *215:A2 *66:57 1.90502e-05
12 *213:B *215:A2 0.000510555
13 *247:D *215:A2 0
14 *267:A *215:A2 0.000238202
*RES
1 *214:X *215:A2 27.355 
*END

*D_NET *39 0.00534815
*CONN
*I *219:A2 I *D sky130_fd_sc_hd__a22o_2
*I *215:X O *D sky130_fd_sc_hd__o21a_2
*CAP
1 *219:A2 0.00221232
2 *215:X 0.00221232
3 *219:A2 *214:A1 4.63733e-05
4 *219:A2 *216:A2 1.88602e-05
5 *219:A2 *224:A0 0.000262
6 *219:A2 *225:A0 0.000254258
7 *219:A2 *283:A 2.58181e-05
8 *219:A2 *67:10 8.23457e-05
9 *213:B *219:A2 0.000118407
10 *215:A2 *219:A2 1.88602e-05
11 *219:A1 *219:A2 9.65944e-05
*RES
1 *215:X *219:A2 20.2211 
*END

*D_NET *40 0.00172965
*CONN
*I *218:A0 I *D sky130_fd_sc_hd__mux2_1
*I *216:X O *D sky130_fd_sc_hd__mux4_2
*CAP
1 *218:A0 0.00036468
2 *216:X 0.00036468
3 *218:A0 *215:B1 0.000157595
4 *218:A0 *216:A1 2.05056e-05
5 *218:A0 *232:A1 0.000234056
6 *218:A0 *237:S 1.08758e-05
7 *218:A0 *286:A 0.000181134
8 *218:A0 *85:33 0.000186362
9 *213:B *218:A0 0.00019898
10 *215:A1 *218:A0 1.07797e-05
*RES
1 *216:X *218:A0 15.87 
*END

*D_NET *41 0.000149365
*CONN
*I *218:A1 I *D sky130_fd_sc_hd__mux2_1
*I *217:X O *D sky130_fd_sc_hd__mux4_2
*CAP
1 *218:A1 4.11351e-05
2 *217:X 4.11351e-05
3 *247:D *218:A1 6.70947e-05
*RES
1 *217:X *218:A1 8.07 
*END

*D_NET *42 0.00385764
*CONN
*I *219:B1 I *D sky130_fd_sc_hd__a22o_2
*I *218:X O *D sky130_fd_sc_hd__mux2_1
*CAP
1 *219:B1 0.00073375
2 *218:X 0.00073375
3 *219:B1 *231:A1 7.41798e-05
4 *219:B1 *237:A1 3.60441e-05
5 *219:B1 *266:A 0.000359782
6 *219:B1 *52:10 0.000256772
7 *219:B1 *67:31 0.000329318
8 *219:B1 *85:33 0.000515254
9 *219:B1 *91:10 0.000771016
10 *250:D *219:B1 4.77719e-05
*RES
1 *218:X *219:B1 24.495 
*END

*D_NET *43 0.00404406
*CONN
*I *221:A0 I *D sky130_fd_sc_hd__mux2_1
*I *220:A0 I *D sky130_fd_sc_hd__mux2_1
*I *219:X O *D sky130_fd_sc_hd__a22o_2
*CAP
1 *221:A0 0.000302141
2 *220:A0 0.000381154
3 *219:X 0.000115266
4 *43:8 0.000798561
5 *220:A0 *223:A0 5.87002e-05
6 *220:A0 *232:A1 4.43871e-06
7 *220:A0 *237:A0 8.65961e-05
8 *220:A0 *237:A1 0.00063864
9 *220:A0 *255:CLK 5.20193e-05
10 *220:A0 *46:10 2.14363e-05
11 *220:A0 *46:23 8.3965e-05
12 *220:A0 *46:60 9.07618e-05
13 *220:A0 *46:75 3.84918e-06
14 *221:A0 *214:A3 0.00016831
15 *221:A0 *220:A1 0.000414687
16 *221:A0 *221:A1 4.77807e-05
17 *221:A0 *272:A 2.01737e-05
18 *221:A0 *298:A 3.33839e-05
19 *221:A0 *46:75 8.35118e-05
20 *43:8 *223:A0 0.0001402
21 *43:8 *237:A1 0.000423052
22 *43:8 *70:10 7.5431e-05
*RES
1 *219:X *43:8 8.55 
2 *43:8 *220:A0 12.915 
3 *43:8 *221:A0 10.485 
*END

*D_NET *44 0.00267076
*CONN
*I *261:A I *D sky130_fd_sc_hd__clkbuf_16
*I *260:A I *D sky130_fd_sc_hd__clkbuf_16
*I *259:X O *D sky130_fd_sc_hd__clkbuf_16
*CAP
1 *261:A 0.000303508
2 *260:A 7.91195e-05
3 *259:X 2.37601e-05
4 *44:49 0.000405942
5 *44:44 0.000102433
6 *44:33 0.000547879
7 *44:8 0.000514407
8 *44:6 6.9408e-05
9 *260:A *214:S1 9.14734e-05
10 *261:A *214:S1 1.34687e-05
11 *261:A *52:10 2.01259e-05
12 *44:6 *232:A0 1.34687e-05
13 *44:8 *232:A0 2.66235e-05
14 *44:33 *214:S1 1.20369e-05
15 *44:33 *225:A1 2.69153e-05
16 *44:33 *225:S 0.000136856
17 *44:33 *232:A0 2.80547e-05
18 *44:33 *247:CLK 8.44471e-05
19 *44:33 *61:10 9.95691e-06
20 *44:49 *215:B1 9.73303e-05
21 *44:49 *225:A0 1.5996e-05
22 *44:49 *232:A0 0
23 *247:D *44:33 1.05476e-05
24 *10:18 *44:33 3.70011e-05
*RES
1 *259:X *44:6 2.05 
2 *44:6 *44:8 0.83625 
3 *44:8 *44:33 12.34 
4 *44:33 *260:A 3.11875 
5 *44:6 *44:44 2 
6 *44:44 *44:49 2.145 
7 *44:49 *261:A 7.605 
*END

*D_NET *45 0.00713646
*CONN
*I *243:CLK I *D sky130_fd_sc_hd__dfxtp_2
*I *245:CLK I *D sky130_fd_sc_hd__dfxtp_2
*I *244:CLK I *D sky130_fd_sc_hd__dfxtp_2
*I *246:CLK I *D sky130_fd_sc_hd__dfxtp_2
*I *248:CLK I *D sky130_fd_sc_hd__dfxtp_2
*I *251:CLK I *D sky130_fd_sc_hd__dfxtp_2
*I *249:CLK I *D sky130_fd_sc_hd__dfxtp_2
*I *250:CLK I *D sky130_fd_sc_hd__dfxtp_2
*I *252:CLK I *D sky130_fd_sc_hd__dfxtp_2
*I *260:X O *D sky130_fd_sc_hd__clkbuf_16
*CAP
1 *243:CLK 0.000292278
2 *245:CLK 0.000319327
3 *244:CLK 0
4 *246:CLK 3.37454e-05
5 *248:CLK 3.37585e-05
6 *251:CLK 1.85597e-05
7 *249:CLK 0
8 *250:CLK 0
9 *252:CLK 0.000151093
10 *260:X 0.000426664
11 *45:90 0.000650865
12 *45:81 0.000192161
13 *45:40 0.000344273
14 *45:20 0.000397536
15 *45:14 0.00067614
16 *45:12 0.000319148
17 *45:10 0.000488915
18 *243:CLK *227:A1 5.55344e-05
19 *243:CLK *48:8 4.66742e-05
20 *245:CLK *245:D 3.51254e-06
21 *252:CLK *251:D 0.000153469
22 *45:10 *248:D 0.000183002
23 *45:12 *248:D 0.000206157
24 *45:14 *229:A0 0
25 *45:14 *248:D 4.43871e-06
26 *45:20 *251:D 3.00381e-05
27 *45:40 *59:14 0.000152679
28 *45:81 *227:A1 1.64141e-05
29 *45:81 *228:A0 7.03219e-05
30 *45:81 *229:A0 0.000113222
31 *45:90 *227:A1 7.85839e-05
32 *249:D *251:CLK 4.82919e-05
33 *249:D *252:CLK 0.000118207
34 *249:D *45:40 0.000103036
35 *250:D *252:CLK 1.43717e-05
36 *250:D *45:14 0
37 *250:D *45:20 0
38 *269:A *243:CLK 9.16314e-05
39 *269:A *45:81 0.00028011
40 *269:A *45:90 0.000131821
41 *284:A *252:CLK 0.000637741
42 *284:A *45:20 0.00025274
43 *10:18 *45:10 0
*RES
1 *260:X *45:10 8.67 
2 *45:10 *45:12 4.185 
3 *45:12 *45:14 1.635 
4 *45:14 *45:20 6.92 
5 *45:20 *252:CLK 8.275 
6 *45:20 *250:CLK 1.6 
7 *45:14 *45:40 7.64 
8 *45:40 *249:CLK 1.6 
9 *45:40 *251:CLK 2.05 
10 *45:12 *248:CLK 4.05 
11 *45:10 *246:CLK 4.05 
12 *260:X *45:81 7.47 
13 *45:81 *244:CLK 3.6 
14 *45:81 *45:90 1.635 
15 *45:90 *245:CLK 7.08 
16 *45:90 *243:CLK 8.4 
*END

*D_NET *46 0.0093862
*CONN
*I *240:CLK I *D sky130_fd_sc_hd__dfxtp_2
*I *242:CLK I *D sky130_fd_sc_hd__dfxtp_2
*I *241:CLK I *D sky130_fd_sc_hd__dfxtp_2
*I *247:CLK I *D sky130_fd_sc_hd__dfxtp_2
*I *257:CLK I *D sky130_fd_sc_hd__dfxtp_2
*I *256:CLK I *D sky130_fd_sc_hd__dfxtp_2
*I *253:CLK I *D sky130_fd_sc_hd__dfxtp_2
*I *254:CLK I *D sky130_fd_sc_hd__dfxtp_2
*I *255:CLK I *D sky130_fd_sc_hd__dfxtp_2
*I *261:X O *D sky130_fd_sc_hd__clkbuf_16
*CAP
1 *240:CLK 0
2 *242:CLK 0.000125113
3 *241:CLK 4.88629e-05
4 *247:CLK 0.000289108
5 *257:CLK 2.61242e-05
6 *256:CLK 0.000389039
7 *253:CLK 9.20474e-05
8 *254:CLK 8.29955e-05
9 *255:CLK 6.61533e-05
10 *261:X 0.000344351
11 *46:81 0.000516148
12 *46:79 0.000655926
13 *46:75 0.000521004
14 *46:60 0.000271622
15 *46:29 0.000420163
16 *46:23 0.000823697
17 *46:10 0.000286219
18 *46:8 0.000452008
19 *241:CLK *214:S1 6.5172e-05
20 *241:CLK *225:A0 4.1168e-05
21 *242:CLK *225:A1 0
22 *242:CLK *50:6 2.68464e-05
23 *247:CLK *225:S 7.15179e-05
24 *253:CLK *67:35 0.000157015
25 *254:CLK *215:B1 4.66108e-05
26 *254:CLK *66:103 0.000147114
27 *256:CLK *237:A0 3.27352e-05
28 *256:CLK *256:D 2.68503e-05
29 *257:CLK *94:18 4.66108e-05
30 *46:10 *231:A0 6.90254e-05
31 *46:23 *216:A1 3.85797e-05
32 *46:23 *231:A0 0.000427199
33 *46:29 *216:A1 5.27539e-05
34 *46:29 *231:A0 5.7344e-05
35 *46:29 *238:S 2.99555e-05
36 *46:29 *66:103 3.83194e-05
37 *46:29 *89:8 0.000109377
38 *46:60 *231:A0 0.000244132
39 *46:75 *214:A3 3.51803e-05
40 *46:75 *223:A0 0.000131525
41 *46:75 *231:A0 0.000153685
42 *46:79 *214:A0 4.64034e-05
43 *46:79 *214:A2 8.23457e-05
44 *46:79 *214:A3 0.00013516
45 *46:79 *214:S0 0.000115322
46 *46:79 *224:A1 8.71226e-05
47 *213:B *247:CLK 0.000240149
48 *213:B *46:81 0.000111293
49 *215:A1 *254:CLK 0.000118519
50 *215:A2 *46:79 1.08758e-05
51 *215:A2 *46:81 2.0794e-05
52 *220:A0 *255:CLK 5.20193e-05
53 *220:A0 *46:10 2.14363e-05
54 *220:A0 *46:23 8.3965e-05
55 *220:A0 *46:60 9.07618e-05
56 *220:A0 *46:75 3.84918e-06
57 *221:A0 *46:75 8.35118e-05
58 *240:D *46:75 7.03046e-05
59 *253:D *253:CLK 8.53113e-06
60 *254:D *253:CLK 0
61 *254:D *254:CLK 1.43717e-05
62 *259:A *247:CLK 5.22278e-06
63 *267:A *46:81 0.000193495
64 *271:A *242:CLK 0.000188306
65 *271:A *46:81 5.87002e-05
66 *44:33 *247:CLK 8.44471e-05
*RES
1 *261:X *46:8 7.155 
2 *46:8 *46:10 0.87 
3 *46:10 *255:CLK 5.01 
4 *46:10 *46:23 5.46 
5 *46:23 *46:29 6.845 
6 *46:29 *254:CLK 4.465 
7 *46:29 *253:CLK 7.49 
8 *46:23 *256:CLK 8.115 
9 *46:8 *46:60 2.91 
10 *46:60 *257:CLK 4.05 
11 *46:60 *46:75 6.065 
12 *46:75 *46:79 8.315 
13 *46:79 *46:81 3.93 
14 *46:81 *247:CLK 8.955 
15 *46:81 *241:CLK 4.74 
16 *46:79 *242:CLK 6.45 
17 *46:75 *240:CLK 1.6 
*END

*D_NET *47 0.00346244
*CONN
*I *216:A0 I *D sky130_fd_sc_hd__mux4_2
*I *274:A I *D sky130_fd_sc_hd__dlygate4sd3_1
*I *256:Q O *D sky130_fd_sc_hd__dfxtp_2
*CAP
1 *216:A0 0.000218005
2 *274:A 0.000900934
3 *256:Q 0.00111894
4 *216:A0 *216:A1 0.000306155
5 *274:A *216:A1 0.000192428
6 *274:A *231:A0 2.67503e-05
7 *274:A *231:S 6.97202e-05
8 *274:A *232:A1 9.54469e-05
9 *274:A *233:A0 0.000157309
10 *274:A *238:S 0
11 *274:A *66:103 2.54779e-05
12 *274:A *67:35 0
13 *274:A *79:10 3.99879e-05
14 *249:D *274:A 0.000311282
*RES
1 *256:Q *274:A 20.805 
2 *256:Q *216:A0 6.065 
*END

*D_NET *48 0.00251246
*CONN
*I *264:A I *D sky130_fd_sc_hd__dlygate4sd3_1
*I *212:A2 I *D sky130_fd_sc_hd__mux4_2
*I *245:Q O *D sky130_fd_sc_hd__dfxtp_2
*CAP
1 *264:A 0.000152304
2 *212:A2 0.000166944
3 *245:Q 0.000103068
4 *48:8 0.000422316
5 *212:A2 *234:A0 0.000359822
6 *212:A2 *287:A 0.000357468
7 *264:A *234:A0 0.000461856
8 *264:A *287:A 0.000428571
9 *264:A *63:10 1.34361e-05
10 *243:CLK *48:8 4.66742e-05
*RES
1 *245:Q *48:8 4.74 
2 *48:8 *212:A2 8.58 
3 *48:8 *264:A 9.06 
*END

*D_NET *49 0.00155083
*CONN
*I *273:A I *D sky130_fd_sc_hd__dlygate4sd3_1
*I *212:A3 I *D sky130_fd_sc_hd__mux4_2
*I *244:Q O *D sky130_fd_sc_hd__dfxtp_2
*CAP
1 *273:A 0.000304704
2 *212:A3 0.000156223
3 *244:Q 0
4 *49:6 0.000460927
5 *212:A3 *62:23 9.23635e-05
6 *212:A3 *72:10 5.00391e-05
7 *273:A *263:A 4.80285e-05
8 *273:A *279:A 0
9 *273:A *62:23 2.98587e-05
10 *273:A *72:10 0.00031713
11 *273:A *78:10 0
12 *243:D *273:A 9.15595e-05
*RES
1 *244:Q *49:6 3.6 
2 *49:6 *212:A3 6.21 
3 *49:6 *273:A 11.13 
*END

*D_NET *50 0.00295474
*CONN
*I *224:A1 I *D sky130_fd_sc_hd__mux2_1
*I *214:A0 I *D sky130_fd_sc_hd__mux4_2
*I *277:A I *D sky130_fd_sc_hd__dlygate4sd3_1
*I *243:Q O *D sky130_fd_sc_hd__dfxtp_2
*CAP
1 *224:A1 0.000223897
2 *214:A0 6.72033e-05
3 *277:A 0.000207131
4 *243:Q 0.000100296
5 *50:27 0.000563779
6 *50:6 0.000580106
7 *224:A1 *214:S1 2.3228e-05
8 *224:A1 *224:A0 0.000151358
9 *224:A1 *224:S 8.46768e-05
10 *224:A1 *225:A0 0.00011099
11 *224:A1 *241:D 1.08758e-05
12 *277:A *225:A0 0.00012182
13 *277:A *225:A1 0
14 *277:A *263:A 0.000142251
15 *277:A *78:10 0
16 *50:27 *214:A1 1.0931e-05
17 *50:27 *225:A0 9.44299e-05
18 *50:27 *242:D 2.86523e-05
19 *242:CLK *50:6 2.68464e-05
20 *267:A *224:A1 4.21579e-05
21 *271:A *277:A 0.000116853
22 *271:A *50:27 0.000113735
23 *46:79 *214:A0 4.64034e-05
24 *46:79 *224:A1 8.71226e-05
*RES
1 *243:Q *50:6 2.74 
2 *50:6 *277:A 10.16 
3 *50:6 *50:27 8.905 
4 *50:27 *214:A0 2.395 
5 *50:27 *224:A1 10.31 
*END

*D_NET *51 0.00239655
*CONN
*I *270:A I *D sky130_fd_sc_hd__dlygate4sd3_1
*I *214:A1 I *D sky130_fd_sc_hd__mux4_2
*I *223:A1 I *D sky130_fd_sc_hd__mux2_1
*I *242:Q O *D sky130_fd_sc_hd__dfxtp_2
*CAP
1 *270:A 0.000118873
2 *214:A1 0.000273235
3 *223:A1 7.77562e-05
4 *242:Q 0
5 *51:8 0.000411434
6 *51:6 0.000179315
7 *214:A1 *225:A0 1.88602e-05
8 *223:A1 *223:A0 4.77807e-05
9 *223:A1 *286:A 9.8308e-05
10 *270:A *266:A 9.76522e-05
11 *270:A *286:A 0.000283521
12 *51:8 *286:A 0.000255389
13 *219:A2 *214:A1 4.63733e-05
14 *219:B2 *223:A1 9.8308e-05
15 *219:B2 *270:A 0.000115464
16 *219:B2 *51:8 0.000263354
17 *50:27 *214:A1 1.0931e-05
*RES
1 *242:Q *51:6 3.6 
2 *51:6 *51:8 3.0375 
3 *51:8 *223:A1 5.3025 
4 *51:8 *214:A1 5.33663 
5 *51:6 *270:A 7.47 
*END

*D_NET *52 0.00246725
*CONN