*SPEF "ieee 1481-1999"
*DESIGN "clb"
*DATE "01:13:15 Wednesday April 08, 2026"
*VENDOR "The OpenROAD Project"
*PROGRAM "OpenROAD"
*VERSION "dcf36133a369abc8f3c5e5738cd4d82e4903c0e0"
*DESIGN_FLOW "NAME_SCOPE LOCAL" "PIN_CAP NONE"
*DIVIDER /
*DELIMITER :
*BUS_DELIMITER []
*T_UNIT 1 NS
*C_UNIT 1 PF
*R_UNIT 1 OHM
*L_UNIT 1 HENRY

*NAME_MAP
*3 addr[0]
*4 addr[1]
*5 addr[2]
*6 addr[3]
*7 clk
*8 mux
*9 q
*10 scan_clk
*11 scan_en
*12 scan_in
*13 scan_out
*14 x
*15 _00_
*16 _01_
*17 _02_
*18 _03_
*19 _04_
*20 _05_
*21 _06_
*22 _07_
*23 _08_
*24 _09_
*25 _10_
*26 _11_
*27 _12_
*28 _13_
*29 _14_
*30 _15_
*31 _16_
*32 _17_
*33 _18_
*34 _19_
*35 _20_
*36 _21_
*37 _22_
*38 _23_
*39 _24_
*40 _25_
*41 _26_
*42 _27_
*43 _28_
*44 clknet_0_scan_clk
*45 clknet_1_0__leaf_scan_clk
*46 clknet_1_1__leaf_scan_clk
*47 mem\[0\]
*48 mem\[10\]
*49 mem\[11\]
*50 mem\[12\]
*51 mem\[13\]
*52 mem\[14\]
*53 mem\[15\]
*54 mem\[1\]
*55 mem\[2\]
*56 mem\[3\]
*57 mem\[4\]
*58 mem\[5\]
*59 mem\[6\]
*60 mem\[7\]
*61 mem\[8\]
*62 mem\[9\]
*63 net1
*64 net10
*65 net11
*66 net12
*67 net13
*68 net14
*69 net15
*70 net16
*71 net17
*72 net18
*73 net19
*74 net2
*75 net20
*76 net21
*77 net22
*78 net23
*79 net24
*80 net25
*81 net26
*82 net27
*83 net28
*84 net29
*85 net3
*86 net30
*87 net31
*88 net32
*89 net33
*90 net34
*91 net35
*92 net36
*93 net37
*94 net4
*95 net5
*96 net6
*97 net7
*98 net8
*99 net9
*100 q_control
*101 FILLER_0_55
*102 FILLER_10_24
*103 FILLER_10_27
*104 FILLER_10_3
*105 FILLER_10_61
*106 FILLER_10_64
*107 FILLER_11_19
*108 FILLER_11_22
*109 FILLER_11_31
*110 FILLER_11_34
*111 FILLER_11_43
*112 FILLER_11_46
*113 FILLER_11_55
*114 FILLER_11_65
*115 FILLER_12_14
*116 FILLER_12_23
*117 FILLER_12_26
*118 FILLER_12_29
*119 FILLER_12_3
*120 FILLER_12_32
*121 FILLER_12_51
*122 FILLER_12_54
*123 FILLER_12_57
*124 FILLER_12_74
*125 FILLER_13_27
*126 FILLER_13_45
*127 FILLER_13_48
*128 FILLER_13_51
*129 FILLER_13_54
*130 FILLER_13_57
*131 FILLER_13_60
*132 FILLER_13_63
*133 FILLER_13_66
*134 FILLER_1_54
*135 FILLER_1_82
*136 FILLER_2_62
*137 FILLER_2_80
*138 FILLER_3_3
*139 FILLER_3_35
*140 FILLER_3_54
*141 FILLER_3_6
*142 FILLER_3_82
*143 FILLER_4_22
*144 FILLER_4_29
*145 FILLER_4_3
*146 FILLER_5_3
*147 FILLER_5_54
*148 FILLER_5_6
*149 FILLER_5_77
*150 FILLER_5_80
*151 FILLER_6_27
*152 FILLER_6_3
*153 FILLER_6_38
*154 FILLER_6_6
*155 FILLER_6_78
*156 FILLER_6_81
*157 FILLER_7_3
*158 FILLER_7_35
*159 FILLER_7_55
*160 FILLER_7_6
*161 FILLER_7_60
*162 FILLER_7_80
*163 FILLER_8_55
*164 FILLER_8_82
*165 FILLER_9_54
*166 PHY_EDGE_ROW_0_Left_14
*167 PHY_EDGE_ROW_0_Right_0
*168 PHY_EDGE_ROW_10_Left_24
*169 PHY_EDGE_ROW_10_Right_10
*170 PHY_EDGE_ROW_11_Left_25
*171 PHY_EDGE_ROW_11_Right_11
*172 PHY_EDGE_ROW_12_Left_26
*173 PHY_EDGE_ROW_12_Right_12
*174 PHY_EDGE_ROW_13_Left_27
*175 PHY_EDGE_ROW_13_Right_13
*176 PHY_EDGE_ROW_1_Left_15
*177 PHY_EDGE_ROW_1_Right_1
*178 PHY_EDGE_ROW_2_Left_16
*179 PHY_EDGE_ROW_2_Right_2
*180 PHY_EDGE_ROW_3_Left_17
*181 PHY_EDGE_ROW_3_Right_3
*182 PHY_EDGE_ROW_4_Left_18
*183 PHY_EDGE_ROW_4_Right_4
*184 PHY_EDGE_ROW_5_Left_19
*185 PHY_EDGE_ROW_5_Right_5
*186 PHY_EDGE_ROW_6_Left_20
*187 PHY_EDGE_ROW_6_Right_6
*188 PHY_EDGE_ROW_7_Left_21
*189 PHY_EDGE_ROW_7_Right_7
*190 PHY_EDGE_ROW_8_Left_22
*191 PHY_EDGE_ROW_8_Right_8
*192 PHY_EDGE_ROW_9_Left_23
*193 PHY_EDGE_ROW_9_Right_9
*194 TAP_TAPCELL_ROW_0_28
*195 TAP_TAPCELL_ROW_0_29
*196 TAP_TAPCELL_ROW_10_39
*197 TAP_TAPCELL_ROW_11_40
*198 TAP_TAPCELL_ROW_12_41
*199 TAP_TAPCELL_ROW_13_42
*200 TAP_TAPCELL_ROW_13_43
*201 TAP_TAPCELL_ROW_1_30
*202 TAP_TAPCELL_ROW_2_31
*203 TAP_TAPCELL_ROW_3_32
*204 TAP_TAPCELL_ROW_4_33
*205 TAP_TAPCELL_ROW_5_34
*206 TAP_TAPCELL_ROW_6_35
*207 TAP_TAPCELL_ROW_7_36
*208 TAP_TAPCELL_ROW_8_37
*209 TAP_TAPCELL_ROW_9_38
*210 _29_
*211 _30_
*212 _31_
*213 _32_
*214 _33_
*215 _34_
*216 _35_
*217 _36_
*218 _37_
*219 _38_
*220 _39_
*221 _40_
*222 _41_
*223 _42_
*224 _43_
*225 _44_
*226 _45_
*227 _46_
*228 _47_
*229 _48_
*230 _49_
*231 _50_
*232 _51_
*233 _52_
*234 _53_
*235 _54_
*236 _55_
*237 _56_
*238 _57_
*239 _58_
*240 _59_
*241 _60_
*242 _61_
*243 _62_
*244 _63_
*245 _64_
*246 _65_
*247 _66_
*248 _67_
*249 _68_
*250 _69_
*251 _70_
*252 _71_
*253 _72_
*254 _73_
*255 _74_
*256 _75_
*257 _76_
*258 _77_
*259 clkbuf_0_scan_clk
*260 clkbuf_1_0__f_scan_clk
*261 clkbuf_1_1__f_scan_clk
*262 fanout12
*263 fanout13
*264 hold14
*265 hold15
*266 hold16
*267 hold17
*268 hold18
*269 hold19
*270 hold20
*271 hold21
*272 hold22
*273 hold23
*274 hold24
*275 hold25
*276 hold26
*277 hold27
*278 hold28
*279 hold29
*280 hold30
*281 hold31
*282 hold32
*283 hold33
*284 hold34
*285 hold35
*286 hold36
*287 hold37
*288 input1
*289 input2
*290 input3
*291 input4
*292 input5
*293 input6
*294 input7
*295 input8
*296 output10
*297 output11
*298 output9

*PORTS
addr[0] I
addr[1] I
addr[2] I
addr[3] I
clk I
mux O
q O
scan_clk I
scan_en I
scan_in I
scan_out O
x I

*D_NET *3 0.00222182
*CONN
*P addr[0] I
*I *288:A I *D sky130_fd_sc_hd__clkdlybuf4s25_1
*CAP
1 addr[0] 0.00102801
2 *288:A 0
3 *3:13 0.00102801
4 *3:13 *4:15 0.000107978
5 *3:13 *10:18 0
6 *3:13 *11:11 5.78118e-05
*RES
1 addr[0] *3:13 44.2073 
2 *3:13 *288:A 23 
*END

*D_NET *4 0.00266217
*CONN
*P addr[1] I
*I *289:A I *D sky130_fd_sc_hd__clkdlybuf4s25_1
*CAP
1 addr[1] 0.00101121
2 *289:A 0
3 *4:15 0.00101121
4 *4:15 *10:18 0.000247236
5 *4:15 *11:11 0.00025807
6 *4:15 *73:14 0
7 *4:15 *96:6 2.64616e-05
8 *3:13 *4:15 0.000107978
*RES
1 addr[1] *4:15 40.423 
2 *4:15 *289:A 23 
*END

*D_NET *5 0.00764177
*CONN
*P addr[2] I
*I *290:A I *D sky130_fd_sc_hd__clkdlybuf4s25_1
*CAP
1 addr[2] 0.000826201
2 *290:A 4.26123e-05
3 *5:13 0.00169565
4 *5:11 0.00247924
5 *290:A *294:A 9.84794e-05
6 *5:13 *31:10 0.000163256
7 *5:13 *53:26 0
8 *5:13 *66:118 0.000191148
9 *5:13 *77:10 2.29192e-05
10 *5:13 *79:27 0.000424984
11 *5:13 *85:12 0
12 *5:13 *88:10 0
13 *5:13 *91:26 0.000246061
14 *5:13 *93:16 0
15 *5:13 *94:18 0
16 *5:13 *95:12 0.00145123
*RES
1 addr[2] *5:11 47.4207 
2 *5:11 *5:13 39.585 
3 *5:13 *290:A 39.0979 
*END

*D_NET *6 0.00403306
*CONN
*P addr[3] I
*I *291:A I *D sky130_fd_sc_hd__clkdlybuf4s25_1
*CAP
1 addr[3] 0.00100587
2 *291:A 0.000315194
3 *6:11 0.00132107
4 *291:A *9:8 0.000177899
5 *291:A *64:14 0.000228903
6 *6:11 q 7.39536e-05
7 *6:11 scan_out 0
8 *6:11 *278:A 0
9 *6:11 *7:15 0.000681004
10 *6:11 *12:11 0.000229172
11 *6:11 *14:13 0
12 *6:11 *64:14 0
*RES
1 addr[3] *6:11 47.3232 
2 *6:11 *291:A 30.7886 
*END

*D_NET *7 0.00342073
*CONN
*P clk I
*I *292:A I *D sky130_fd_sc_hd__clkdlybuf4s25_1
*CAP
1 clk 0.000993557
2 *292:A 0
3 *7:15 0.000993557
4 *7:15 mux 8.68577e-05
5 *7:15 q 7.39536e-05
6 *7:15 *297:A 0.000269769
7 *7:15 *12:11 0
8 *7:15 *13:8 0.0002263
9 *7:15 *14:13 9.57306e-05
10 *6:11 *7:15 0.000681004
*RES
1 clk *7:15 45.8792 
2 *7:15 *292:A 23 
*END

*D_NET *8 0.00206813
*CONN
*P mux O
*I *298:X O *D sky130_fd_sc_hd__clkdlybuf4s25_1
*CAP
1 mux 0.000338065
2 *298:X 0.000129599
3 *8:8 0.000467664
4 mux scan_out 0.000117499
5 mux *12:11 0
6 mux *14:13 9.23423e-05
7 *8:8 *12:11 0.000452459
8 *8:8 *64:14 7.52055e-05
9 *8:8 *65:10 0.000166557
10 *8:8 *65:21 0.000141888
11 *7:15 mux 8.68577e-05
*RES
1 *298:X *8:8 43.9554 
2 *8:8 mux 9.36173 
*END

*D_NET *9 0.00352937
*CONN
*P q O
*I *296:X O *D sky130_fd_sc_hd__clkdlybuf4s25_1
*CAP
1 q 0.000810718
2 *296:X 0.000318366
3 *9:8 0.00112908
4 q scan_out 9.97966e-05
5 q *14:13 0.000845604
6 *291:A *9:8 0.000177899
7 *6:11 q 7.39536e-05
8 *7:15 q 7.39536e-05
*RES
1 *296:X *9:8 44.3386 
2 *9:8 q 29.6951 
*END

*D_NET *10 0.00472044
*CONN
*P scan_clk I
*I *259:A I *D sky130_fd_sc_hd__clkbuf_16
*CAP
1 scan_clk 0.0019325
2 *259:A 0.000118017
3 *10:18 0.00205051
4 *259:A *247:CLK 4.71709e-06
5 *259:A *247:D 6.17437e-06
6 *10:18 *11:11 0.000281585
7 *10:18 *44:33 3.8011e-05
8 *10:18 *45:10 0
9 *10:18 *61:10 4.16899e-05
10 *10:18 *73:14 0
11 *3:13 *10:18 0
12 *4:15 *10:18 0.000247236
*RES
1 scan_clk *10:18 38.8794 
2 *10:18 *259:A 39.595 
*END

*D_NET *11 0.00184041
*CONN
*P scan_en I
*I *293:A I *D sky130_fd_sc_hd__clkdlybuf4s25_1
*CAP
1 scan_en 0.00054262
2 *293:A 0
3 *11:11 0.00054262
4 *11:11 *69:8 0.000140223
5 *11:11 *73:14 1.74856e-05
6 *3:13 *11:11 5.78118e-05
7 *4:15 *11:11 0.00025807
8 *10:18 *11:11 0.000281585
*RES
1 scan_en *11:11 31.3147 
2 *11:11 *293:A 23 
*END

*D_NET *12 0.00471467
*CONN
*P scan_in I
*I *294:A I *D sky130_fd_sc_hd__clkdlybuf4s25_1
*CAP
1 scan_in 0.00114493
2 *294:A 0.000553686
3 *12:11 0.00169861
4 *294:A *83:10 5.50106e-05
5 *12:11 *278:A 8.26672e-05
6 *12:11 *64:14 0.000139283
7 *12:11 *65:21 0.000260376
8 *12:11 *100:23 0
9 mux *12:11 0
10 *290:A *294:A 9.84794e-05
11 *6:11 *12:11 0.000229172
12 *7:15 *12:11 0
13 *8:8 *12:11 0.000452459
*RES
1 scan_in *12:11 46.0777 
2 *12:11 *294:A 32.2179 
*END

*D_NET *13 0.00246535
*CONN
*P scan_out O
*I *297:X O *D sky130_fd_sc_hd__clkdlybuf4s25_1
*CAP
1 scan_out 0.000416842
2 *297:X 0.000278045
3 *13:8 0.000694887
4 scan_out *14:13 0.000631981
5 *13:8 *14:13 0
6 mux scan_out 0.000117499
7 q scan_out 9.97966e-05
8 *6:11 scan_out 0
9 *7:15 *13:8 0.0002263
*RES
1 *297:X *13:8 43.3857 
2 *13:8 scan_out 18.9504 
*END

*D_NET *14 0.00286891
*CONN
*P x I
*I *295:A I *D sky130_fd_sc_hd__clkdlybuf4s25_1
*CAP
1 x 0.000601629
2 *295:A 0
3 *14:13 0.000601629
4 mux *14:13 9.23423e-05
5 q *14:13 0.000845604
6 scan_out *14:13 0.000631981
7 *6:11 *14:13 0
8 *7:15 *14:13 9.57306e-05
9 *13:8 *14:13 0
*RES
1 x *14:13 40.0788 
2 *14:13 *295:A 23 
*END

*D_NET *15 0.000339689
*CONN
*I *258:D I *D sky130_fd_sc_hd__dfxtp_2
*I *220:X O *D sky130_fd_sc_hd__mux2_1
*CAP
1 *258:D 0.000120288
2 *220:X 0.000120288
3 *258:D *31:10 1.68939e-05
4 *258:D *85:31 1.22822e-05
5 *258:D *95:12 5.67058e-05
6 *258:D *98:22 1.32314e-05
*RES
1 *220:X *258:D 48.3873 
*END

*D_NET *16 0.000737132
*CONN
*I *240:D I *D sky130_fd_sc_hd__dfxtp_2
*I *222:X O *D sky130_fd_sc_hd__mux2_1
*CAP
1 *240:D 3.10426e-05
2 *222:X 6.07098e-05
3 *16:8 9.17525e-05
4 *240:D *46:75 8.04002e-05
5 *240:D *53:10 8.28883e-05
6 *16:8 *91:10 0.000196233
7 *16:8 *97:12 0.000194105
*RES
1 *222:X *16:8 40.61 
2 *16:8 *240:D 38.9373 
*END

*D_NET *17 0.00212553
*CONN
*I *267:A I *D sky130_fd_sc_hd__dlygate4sd3_1
*I *223:X O *D sky130_fd_sc_hd__mux2_1
*CAP
1 *267:A 0.000164712
2 *223:X 0.000339641
3 *17:10 0.000504353
4 *267:A *214:S0 0.000231039
5 *267:A *38:12 9.77405e-05
6 *17:10 *224:S 9.89906e-05
7 *17:10 *36:10 9.63836e-05
8 *17:10 *38:12 3.61683e-05
9 *17:10 *38:20 0.000138607
10 *17:10 *46:81 0.000234666
11 *17:10 *50:46 4.65192e-05
12 *17:10 *71:8 0.000112303
13 *17:10 *71:16 2.44078e-05
*RES
1 *223:X *17:10 45.7471 
2 *17:10 *267:A 41.48 
*END

*D_NET *18 0.00178869
*CONN
*I *271:A I *D sky130_fd_sc_hd__dlygate4sd3_1
*I *224:X O *D sky130_fd_sc_hd__mux2_1
*CAP
1 *271:A 4.47995e-05
2 *224:X 0.000440491
3 *18:14 0.00048529
4 *271:A *219:A1 1.59094e-05
5 *18:14 *242:CLK 0.000222901
6 *18:14 *46:81 6.12479e-05
7 *18:14 *50:14 0.000139647
8 *18:14 *50:27 0.000114169
9 *18:14 *71:16 0.000140935
10 *18:14 *76:10 0.000113153
11 *18:14 *78:18 0
12 *18:14 *82:14 0
13 *18:14 *96:27 1.01436e-05
*RES
1 *224:X *18:14 47.8807 
2 *18:14 *271:A 38.6214 
*END

*D_NET *19 0.00166852
*CONN
*I *243:D I *D sky130_fd_sc_hd__dfxtp_2
*I *225:X O *D sky130_fd_sc_hd__mux2_1
*CAP
1 *243:D 0.000211079
2 *225:X 0.000196651
3 *19:8 0.00040773
4 *19:8 *273:A 8.98085e-05
5 *19:8 *279:A 0.000400996
6 *19:8 *61:10 0.000198447
7 *19:8 *62:10 8.30753e-05
8 *19:8 *62:23 8.07381e-05
*RES
1 *225:X *19:8 45.8921 
2 *19:8 *243:D 41.0502 
*END

*D_NET *20 0.001178
*CONN
*I *244:D I *D sky130_fd_sc_hd__dfxtp_2
*I *226:X O *D sky130_fd_sc_hd__mux2_1
*CAP
1 *244:D 8.81697e-06
2 *226:X 0.000163192
3 *20:10 0.000172009
4 *244:D *62:23 1.79713e-05
5 *20:10 *226:S 5.3304e-05
6 *20:10 *60:33 0.000380254
7 *20:10 *62:40 0.000382455
*RES
1 *226:X *20:10 43.6964 
2 *20:10 *244:D 38.1916 
*END

*D_NET *21 0.001437
*CONN
*I *265:A I *D sky130_fd_sc_hd__dlygate4sd3_1
*I *227:X O *D sky130_fd_sc_hd__mux2_1
*CAP
1 *265:A 0
2 *227:X 0.000381318
3 *21:10 0.000381318
4 *21:10 *60:33 0.000177925
5 *21:10 *66:8 0.000351626
6 *21:10 *66:22 8.06804e-06
7 *21:10 *84:6 0.000136743
*RES
1 *227:X *21:10 45.7264 
2 *21:10 *265:A 38 
*END

*D_NET *22 0.00133399
*CONN
*I *246:D I *D sky130_fd_sc_hd__dfxtp_2
*I *228:X O *D sky130_fd_sc_hd__mux2_1
*CAP
1 *246:D 1.31802e-05
2 *228:X 0.000211108
3 *22:8 0.000224288
4 *22:8 *24:12 0.000285153
5 *22:8 *66:26 0.000376046
6 *22:8 *66:32 0.000224216
*RES
1 *228:X *22:8 45.8921 
2 *22:8 *246:D 38.1916 
*END

*D_NET *23 0.00155966
*CONN
*I *247:D I *D sky130_fd_sc_hd__dfxtp_2
*I *229:X O *D sky130_fd_sc_hd__mux2_1
*CAP
1 *247:D 6.1919e-05
2 *229:X 0.000503019
3 *23:14 0.000564938
4 *247:D *61:8 1.06063e-06
5 *23:14 *217:A0 0.000188916
6 *23:14 *38:20 0
7 *23:14 *41:8 8.08292e-05
8 *23:14 *44:33 9.5876e-06
9 *23:14 *58:8 0
10 *23:14 *61:10 4.30407e-05
11 *23:14 *66:46 0.00010018
12 *23:14 *72:10 0
13 *259:A *247:D 6.17437e-06
*RES
1 *229:X *23:14 47.7564 
2 *23:14 *247:D 38.9943 
*END

*D_NET *24 0.00817594
*CONN
*I *269:A I *D sky130_fd_sc_hd__dlygate4sd3_1
*I *230:X O *D sky130_fd_sc_hd__mux2_1
*CAP
1 *269:A 0
2 *230:X 0.000127493
3 *24:20 0.00123976
4 *24:12 0.00195592
5 *24:8 0.000843653
6 *24:8 *217:A3 7.15126e-05
7 *24:8 *230:A1 3.97681e-05
8 *24:8 *66:46 0.000221084
9 *24:12 *243:CLK 0.000110262
10 *24:12 *45:81 0.000343067
11 *24:12 *45:90 0.000158174
12 *24:12 *60:33 0
13 *24:12 *62:40 3.39231e-05
14 *24:12 *66:8 0.000472837
15 *24:12 *66:16 5.49603e-05
16 *24:12 *66:26 1.35333e-05
17 *24:12 *66:32 7.24029e-05
18 *24:12 *73:14 0.000152963
19 *24:12 *84:14 0.000696494
20 *24:12 *84:24 0.000734535
21 *24:20 *285:A 0.000456887
22 *24:20 *287:A 9.15656e-05
23 *22:8 *24:12 0.000285153
*RES
1 *230:X *24:8 41.0036 
2 *24:8 *24:12 41.9079 
3 *24:12 *24:20 47.7729 
4 *24:20 *269:A 23 
*END

*D_NET *25 0.00452576
*CONN
*I *249:D I *D sky130_fd_sc_hd__dfxtp_2
*I *231:X O *D sky130_fd_sc_hd__mux2_1
*CAP
1 *249:D 0
2 *231:X 0.000946083
3 *25:26 0.000270954
4 *25:10 0.00121704
5 *25:10 *236:A0 7.42621e-05
6 *25:10 *236:S 5.50049e-05
7 *25:10 *252:CLK 0.000128964
8 *25:10 *274:A 0.000354116
9 *25:10 *27:26 0.000183338
10 *25:10 *29:10 0.000228001
11 *25:10 *30:10 0.00010018
12 *25:10 *56:10 5.79559e-05
13 *25:10 *67:44 0.000401106
14 *25:10 *81:14 6.68919e-05
15 *25:10 *86:16 0.00011173
16 *25:26 *251:CLK 5.50106e-05
17 *25:26 *251:D 1.59094e-05
18 *25:26 *45:40 0.000116683
19 *25:26 *59:12 5.84866e-05
20 *25:26 *90:10 8.4047e-05
*RES
1 *231:X *25:10 44.75 
2 *25:10 *25:26 35.7379 
3 *25:26 *249:D 23 
*END

*D_NET *26 0.00420182
*CONN
*I *250:D I *D sky130_fd_sc_hd__dfxtp_2
*I *232:X O *D sky130_fd_sc_hd__mux2_1
*CAP
1 *250:D 0
2 *232:X 0.00053861
3 *26:22 0.000466444
4 *26:14 0.00100505
5 *26:14 *213:A 0.00033703
6 *26:14 *37:8 0.000136215
7 *26:14 *42:8 5.56279e-05
8 *26:14 *62:10 0.000122773
9 *26:14 *72:29 0.000298904
10 *26:14 *85:33 0.000319905
11 *26:22 *252:CLK 1.64354e-05
12 *26:22 *27:26 1.74843e-05
13 *26:22 *28:16 0.000302548
14 *26:22 *45:14 0
15 *26:22 *45:20 0
16 *26:22 *58:22 0.000110913
17 *26:22 *60:10 0.000161121
18 *26:22 *60:33 0.000163361
19 *26:22 *66:46 0.000110913
20 *26:22 *84:24 3.84797e-05
*RES
1 *232:X *26:14 36.6921 
2 *26:14 *26:22 41.6052 
3 *26:22 *250:D 23 
*END

*D_NET *27 0.00492189
*CONN
*I *284:A I *D sky130_fd_sc_hd__dlygate4sd3_1
*I *233:X O *D sky130_fd_sc_hd__mux2_1
*CAP
1 *284:A 0
2 *233:X 0.000767608
3 *27:26 0.000562222
4 *27:10 0.00132983
5 *27:10 *233:A1 8.95632e-05
6 *27:10 *253:D 3.32868e-05
7 *27:10 *66:103 5.70419e-05
8 *27:26 *252:CLK 0.000719748
9 *27:26 *28:16 0.000694935
10 *27:26 *45:20 0.000286361
11 *27:26 *86:16 0.000180476
12 *25:10 *27:26 0.000183338
13 *26:22 *27:26 1.74843e-05
*RES
1 *233:X *27:10 48.5021 
2 *27:10 *27:26 35.0514 
3 *27:26 *284:A 23 
*END

*D_NET *28 0.00380879
*CONN
*I *252:D I *D sky130_fd_sc_hd__dfxtp_2
*I *234:X O *D sky130_fd_sc_hd__mux2_1
*CAP
1 *252:D 0
2 *234:X 0
3 *28:16 0.00105917
4 *28:6 0.00105917
5 *28:16 *217:S0 0.00012302
6 *28:16 *37:12 0.000115636
7 *28:16 *58:8 0
8 *28:16 *58:22 0.000295339
9 *28:16 *59:12 5.02972e-05
10 *28:16 *59:14 0
11 *28:16 *66:46 0.000108681
12 *28:16 *86:34 0
13 *26:22 *28:16 0.000302548
14 *27:26 *28:16 0.000694935
*RES
1 *234:X *28:6 38 
2 *28:6 *28:16 37.5371 
3 *28:16 *252:D 23 
*END

*D_NET *29 0.00102324
*CONN
*I *253:D I *D sky130_fd_sc_hd__dfxtp_2
*I *235:X O *D sky130_fd_sc_hd__mux2_1
*CAP
1 *253:D 2.5514e-05
2 *235:X 0.000268615
3 *29:10 0.000294129
4 *253:D *233:A1 8.90284e-05
5 *29:10 *30:10 0
6 *29:10 *46:42 1.01436e-05
7 *29:10 *67:35 7.45175e-05
8 *25:10 *29:10 0.000228001
9 *27:10 *253:D 3.32868e-05
*RES
1 *235:X *29:10 42.785 
2 *29:10 *253:D 38.9943 
*END

*D_NET *30 0.000864403
*CONN
*I *254:D I *D sky130_fd_sc_hd__dfxtp_2
*I *236:X O *D sky130_fd_sc_hd__mux2_1
*CAP
1 *254:D 7.17495e-06
2 *236:X 0.000317748
3 *30:10 0.000324923
4 *254:D *254:CLK 1.64354e-05
5 *254:D *66:103 1.64354e-05
6 *30:10 *46:42 0
7 *30:10 *56:10 4.85019e-05
8 *30:10 *56:23 2.95837e-05
9 *30:10 *94:28 3.41998e-06
10 *25:10 *30:10 0.00010018
11 *29:10 *30:10 0
*RES
1 *236:X *30:10 43.4686 
2 *30:10 *254:D 38.1916 
*END

*D_NET *31 0.00243715
*CONN
*I *255:D I *D sky130_fd_sc_hd__dfxtp_2
*I *237:X O *D sky130_fd_sc_hd__mux2_1
*CAP
1 *255:D 0.000146896
2 *237:X 0.000556548
3 *31:10 0.000703444
4 *255:D *91:22 0.000265456
5 *255:D *100:14 6.46983e-05
6 *31:10 *85:31 0.000430633
7 *31:10 *91:26 7.52305e-05
8 *31:10 *95:12 1.40958e-05
9 *258:D *31:10 1.68939e-05
10 *5:13 *31:10 0.000163256
*RES
1 *237:X *31:10 46.5964 
2 *31:10 *255:D 41.0502 
*END

*D_NET *32 0.000637012
*CONN
*I *275:A I *D sky130_fd_sc_hd__dlygate4sd3_1
*I *238:X O *D sky130_fd_sc_hd__mux2_1
*CAP
1 *275:A 0
2 *238:X 0.000193789
3 *32:10 0.000193789
4 *32:10 *67:57 4.57742e-05
5 *32:10 *79:27 0.000138304
6 *32:10 *93:16 6.53562e-05
*RES
1 *238:X *32:10 41.48 
2 *32:10 *275:A 38 
*END

*D_NET *33 0.000832959
*CONN
*I *257:D I *D sky130_fd_sc_hd__dfxtp_2
*I *239:X O *D sky130_fd_sc_hd__mux2_1
*CAP
1 *257:D 1.3337e-05
2 *239:X 0.000128834
3 *33:8 0.000142171
4 *33:8 *94:18 9.10903e-05
5 *33:8 *95:12 0.000319628
6 *33:8 *98:22 0.000137898
*RES
1 *239:X *33:8 42.3707 
2 *33:8 *257:D 38.1916 
*END

*D_NET *34 0.00260102
*CONN
*I *215:A1 I *D sky130_fd_sc_hd__o21a_2
*I *210:Y O *D sky130_fd_sc_hd__inv_2
*CAP
1 *215:A1 0.00033063
2 *210:Y 0.000552518
3 *34:10 0.000883148
4 *215:A1 *215:B1 2.32183e-05
5 *215:A1 *254:CLK 0.000128682
6 *215:A1 *66:57 0
7 *34:10 *40:12 1.12487e-05
8 *34:10 *56:36 0.000335245
9 *34:10 *67:31 6.55799e-05
10 *34:10 *67:35 0.000161408
11 *34:10 *91:22 5.45541e-05
12 *34:10 *91:39 1.31142e-05
13 *34:10 *94:28 4.16764e-05
*RES
1 *210:Y *34:10 47.8393 
2 *34:10 *215:A1 43.4479 
*END

*D_NET *35 0.00221489
*CONN
*I *219:B2 I *D sky130_fd_sc_hd__a22o_2
*I *211:Y O *D sky130_fd_sc_hd__inv_2
*CAP
1 *219:B2 0
2 *211:Y 0.000433196
3 *35:10 0.000433196
4 *35:10 *223:A0 0.00022308
5 *35:10 *223:A1 0.000118017
6 *35:10 *266:A 0.000446181
7 *35:10 *270:A 0.000137788
8 *35:10 *51:8 0.000315306
9 *35:10 *52:10 0.000108129
*RES
1 *211:Y *35:10 48.0671 
2 *35:10 *219:B2 38 
*END

*D_NET *36 0.00342348
*CONN
*I *213:B I *D sky130_fd_sc_hd__or2_2
*I *212:X O *D sky130_fd_sc_hd__mux4_2
*CAP
1 *213:B 0.000176022
2 *212:X 0.000512366
3 *36:10 0.000688388
4 *213:B *213:A 0.000228903
5 *213:B *218:A0 0.000235687
6 *213:B *85:33 0.000307467
7 *36:10 *247:CLK 0.000294888
8 *36:10 *38:20 0.00061817
9 *36:10 *39:26 0.000129592
10 *36:10 *46:81 0.000135616
11 *17:10 *36:10 9.63836e-05
*RES
1 *212:X *36:10 48.8957 
2 *36:10 *213:B 43.8621 
*END

*D_NET *37 0.0076088
*CONN
*I *219:A1 I *D sky130_fd_sc_hd__a22o_2
*I *213:X O *D sky130_fd_sc_hd__or2_2
*CAP
1 *219:A1 0.00145038
2 *213:X 0.000139862
3 *37:12 0.00190997
4 *37:8 0.000599454
5 *219:A1 *219:A2 9.48236e-05
6 *219:A1 *84:6 0.000821162
7 *219:A1 *96:27 7.95535e-05
8 *37:8 *62:10 0.000139352
9 *37:12 *217:S0 0.000587862
10 *37:12 *58:22 0.00116701
11 *37:12 *63:10 0.000351606
12 *271:A *219:A1 1.59094e-05
13 *26:14 *37:8 0.000136215
14 *28:16 *37:12 0.000115636
*RES
1 *213:X *37:8 41.0036 
2 *37:8 *37:12 32.4 
3 *37:12 *219:A1 42.9271 
*END

*D_NET *38 0.0035276
*CONN
*I *215:A2 I *D sky130_fd_sc_hd__o21a_2
*I *214:X O *D sky130_fd_sc_hd__mux4_2
*CAP
1 *215:A2 7.8525e-05
2 *214:X 0.000210511
3 *38:20 0.000734155
4 *38:12 0.000866141
5 *215:A2 *215:B1 3.66555e-05
6 *215:A2 *66:57 2.05284e-05
7 *38:12 *214:S0 6.72365e-05
8 *38:12 *46:79 1.24376e-05
9 *38:12 *71:8 0.000114566
10 *38:20 *216:A2 0.000101139
11 *38:20 *39:12 2.26406e-05
12 *38:20 *46:81 2.14599e-05
13 *38:20 *66:77 0.000160433
14 *38:20 *71:16 0.000190485
15 *267:A *38:12 9.77405e-05
16 *17:10 *38:12 3.61683e-05
17 *17:10 *38:20 0.000138607
18 *23:14 *38:20 0
19 *36:10 *38:20 0.00061817
*RES
1 *214:X *38:12 42.6814 
2 *38:12 *38:20 46.0536 
3 *38:20 *215:A2 39.5743 
*END

*D_NET *39 0.00661473
*CONN
*I *219:A2 I *D sky130_fd_sc_hd__a22o_2
*I *215:X O *D sky130_fd_sc_hd__o21a_2
*CAP
1 *219:A2 0.000439245
2 *215:X 5.09206e-05
3 *39:26 0.00272303
4 *39:12 0.0023347
5 *219:A2 *67:10 9.41704e-05
6 *39:12 *216:A2 2.26406e-05
7 *39:12 *57:31 2.84778e-05
8 *39:26 *51:29 4.91998e-05
9 *39:26 *75:8 0.000313631
10 *39:26 *82:14 0.000311661
11 *219:A1 *219:A2 9.48236e-05
12 *36:10 *39:26 0.000129592
13 *38:20 *39:12 2.26406e-05
*RES
1 *215:X *39:12 46.42 
2 *39:12 *39:26 46.997 
3 *39:26 *219:A2 30.048 
*END

*D_NET *40 0.00212167
*CONN
*I *218:A0 I *D sky130_fd_sc_hd__mux2_1
*I *216:X O *D sky130_fd_sc_hd__mux4_2
*CAP
1 *218:A0 0.000315841
2 *216:X 0.000169207
3 *40:12 0.000485049
4 *218:A0 *232:A1 0.000267591
5 *218:A0 *237:S 1.24376e-05
6 *218:A0 *85:31 8.71527e-05
7 *218:A0 *85:33 0.000114666
8 *40:12 *216:A1 2.18409e-05
9 *40:12 *56:36 0.000212961
10 *40:12 *94:28 0.000187986
11 *213:B *218:A0 0.000235687
12 *34:10 *40:12 1.12487e-05
*RES
1 *216:X *40:12 42.205 
2 *40:12 *218:A0 45.7679 
*END

*D_NET *41 0.000190222
*CONN
*I *218:A1 I *D sky130_fd_sc_hd__mux2_1
*I *217:X O *D sky130_fd_sc_hd__mux4_2
*CAP
1 *218:A1 0
2 *217:X 5.46964e-05
3 *41:8 5.46964e-05
4 *23:14 *41:8 8.08292e-05
*RES
1 *217:X *41:8 39.2014 
2 *41:8 *218:A1 38 
*END

*D_NET *42 0.00486142
*CONN
*I *219:B1 I *D sky130_fd_sc_hd__a22o_2
*I *218:X O *D sky130_fd_sc_hd__mux2_1
*CAP
1 *219:B1 0
2 *218:X 0.000581818
3 *42:12 0.00042501
4 *42:8 0.00100683
5 *42:8 *85:31 0.000482617
6 *42:8 *85:33 0.000101216
7 *42:12 *266:A 0.000431639
8 *42:12 *52:10 0.000313442
9 *42:12 *67:31 0.000402874
10 *42:12 *91:10 0.000936164
11 *42:12 *91:22 9.20101e-05
12 *42:12 *97:12 3.2171e-05
13 *26:14 *42:8 5.56279e-05
*RES
1 *218:X *42:8 46.2443 
2 *42:8 *42:12 30.6393 
3 *42:12 *219:B1 23 
*END

*D_NET *43 0.00510635
*CONN
*I *221:A0 I *D sky130_fd_sc_hd__mux2_1
*I *220:A0 I *D sky130_fd_sc_hd__mux2_1
*I *219:X O *D sky130_fd_sc_hd__a22o_2
*CAP
1 *221:A0 0.000404093
2 *220:A0 0
3 *219:X 0.000165265
4 *43:14 0.000576891
5 *43:8 0.00114625
6 *221:A0 *221:A1 5.58003e-05
7 *221:A0 *46:75 9.66585e-05
8 *221:A0 *53:10 0.000192504
9 *221:A0 *53:26 2.10502e-05
10 *221:A0 *98:22 0.000484888
11 *221:A0 *99:10 3.46302e-05
12 *43:8 *223:A0 0.000151036
13 *43:8 *70:10 7.4878e-05
14 *43:8 *97:12 0.000508094
15 *43:14 *223:A0 6.12479e-05
16 *43:14 *232:A1 4.6318e-06
17 *43:14 *237:A0 9.84851e-05
18 *43:14 *255:CLK 6.437e-05
19 *43:14 *46:10 1.90974e-05
20 *43:14 *46:23 7.74839e-05
21 *43:14 *46:60 8.32465e-05
22 *43:14 *46:75 3.35883e-06
23 *43:14 *97:12 0.000782395
*RES
1 *219:X *43:8 44.8357 
2 *43:8 *43:14 27.8636 
3 *43:14 *220:A0 23 
4 *43:8 *221:A0 47.5079 
*END

*D_NET *44 0.00332592
*CONN
*I *261:A I *D sky130_fd_sc_hd__clkbuf_16
*I *260:A I *D sky130_fd_sc_hd__clkbuf_16
*I *259:X O *D sky130_fd_sc_hd__clkbuf_16
*CAP
1 *261:A 0.000388535
2 *260:A 0.000102809
3 *259:X 3.03326e-05
4 *44:49 0.000527655
5 *44:44 0.00013912
6 *44:33 0.000724543
7 *44:8 0.00067787
8 *44:6 8.64691e-05
9 *260:A *74:54 0.000101056
10 *261:A *52:10 1.85916e-05
11 *261:A *74:54 1.24362e-05
12 *44:6 *91:39 1.24362e-05
13 *44:8 *91:39 2.46125e-05
14 *44:33 *247:CLK 9.00055e-05
15 *44:33 *61:10 1.04117e-05
16 *44:33 *66:77 0.000141624
17 *44:33 *74:54 1.23868e-05
18 *44:33 *78:18 2.95423e-05
19 *44:33 *91:39 2.78748e-05
20 *44:49 *82:14 1.6891e-05
21 *44:49 *91:39 0
22 *44:49 *94:28 0.000103123
23 *10:18 *44:33 3.8011e-05
24 *23:14 *44:33 9.5876e-06
*RES
1 *259:X *44:6 23.6214 
2 *44:6 *44:8 1.15482 
3 *44:8 *44:33 41.5171 
4 *44:33 *260:A 25.0973 
5 *44:6 *44:44 15 
6 *44:44 *44:49 2.96214 
7 *44:49 *261:A 43.5307 
*END

*D_NET *45 0.00867143
*CONN
*I *243:CLK I *D sky130_fd_sc_hd__dfxtp_2
*I *245:CLK I *D sky130_fd_sc_hd__dfxtp_2
*I *244:CLK I *D sky130_fd_sc_hd__dfxtp_2
*I *246:CLK I *D sky130_fd_sc_hd__dfxtp_2
*I *248:CLK I *D sky130_fd_sc_hd__dfxtp_2
*I *251:CLK I *D sky130_fd_sc_hd__dfxtp_2
*I *249:CLK I *D sky130_fd_sc_hd__dfxtp_2
*I *250:CLK I *D sky130_fd_sc_hd__dfxtp_2
*I *252:CLK I *D sky130_fd_sc_hd__dfxtp_2
*I *260:X O *D sky130_fd_sc_hd__clkbuf_16
*CAP
1 *243:CLK 0.000384395
2 *245:CLK 0.000394726
3 *244:CLK 0
4 *246:CLK 4.24211e-05
5 *248:CLK 4.24511e-05
6 *251:CLK 2.47039e-05
7 *249:CLK 0
8 *250:CLK 0
9 *252:CLK 0.000191378
10 *260:X 0.000568866
11 *45:90 0.000837508
12 *45:81 0.000278311
13 *45:40 0.000417765
14 *45:20 0.000491329
15 *45:14 0.000824689
16 *45:12 0.000404928
17 *45:10 0.000622161
18 *243:CLK *48:8 4.9662e-05
19 *243:CLK *62:40 6.01596e-05
20 *245:CLK *245:D 3.24476e-06
21 *252:CLK *90:10 0.000165664
22 *45:10 *73:14 0.000194882
23 *45:12 *73:14 0.000223225
24 *45:14 *73:14 4.6318e-06
25 *45:14 *84:24 0
26 *45:20 *90:10 3.22879e-05
27 *45:40 *59:12 0.000150852
28 *45:81 *62:40 1.74126e-05
29 *45:81 *84:24 0.000138747
30 *45:81 *87:10 8.57485e-05
31 *45:90 *62:40 8.45787e-05
32 *10:18 *45:10 0
33 *24:12 *243:CLK 0.000110262
34 *24:12 *45:81 0.000343067
35 *24:12 *45:90 0.000158174
36 *25:10 *252:CLK 0.000128964
37 *25:26 *251:CLK 5.50106e-05
38 *25:26 *45:40 0.000116683
39 *26:22 *252:CLK 1.64354e-05
40 *26:22 *45:14 0
41 *26:22 *45:20 0
42 *27:26 *252:CLK 0.000719748
43 *27:26 *45:20 0.000286361
*RES
1 *260:X *45:10 45.0014 
2 *45:10 *45:12 5.77929 
3 *45:12 *45:14 2.25786 
4 *45:14 *45:20 21.7943 
5 *45:20 *252:CLK 32.2179 
6 *45:20 *250:CLK 23 
7 *45:14 *45:40 22.7886 
8 *45:40 *249:CLK 23 
9 *45:40 *251:CLK 23.6214 
10 *45:12 *248:CLK 38.6214 
11 *45:10 *246:CLK 38.6214 
12 *260:X *45:81 43.3443 
13 *45:81 *244:CLK 38 
14 *45:81 *45:90 2.25786 
15 *45:90 *245:CLK 42.8057 
16 *45:90 *243:CLK 44.6286 
*END

*D_NET *46 0.0118467
*CONN
*I *240:CLK I *D sky130_fd_sc_hd__dfxtp_2
*I *242:CLK I *D sky130_fd_sc_hd__dfxtp_2
*I *241:CLK I *D sky130_fd_sc_hd__dfxtp_2
*I *247:CLK I *D sky130_fd_sc_hd__dfxtp_2
*I *257:CLK I *D sky130_fd_sc_hd__dfxtp_2
*I *256:CLK I *D sky130_fd_sc_hd__dfxtp_2
*I *253:CLK I *D sky130_fd_sc_hd__dfxtp_2
*I *254:CLK I *D sky130_fd_sc_hd__dfxtp_2
*I *255:CLK I *D sky130_fd_sc_hd__dfxtp_2
*I *261:X O *D sky130_fd_sc_hd__clkbuf_16
*CAP
1 *240:CLK 0
2 *242:CLK 0.000163878
3 *241:CLK 7.75741e-05
4 *247:CLK 0.000373206
5 *257:CLK 3.80122e-05
6 *256:CLK 0.000474959
7 *253:CLK 0
8 *254:CLK 0.000116311
9 *255:CLK 7.93472e-05
10 *261:X 0.000424497
11 *46:81 0.000720336
12 *46:79 0.000915894
13 *46:75 0.000730867
14 *46:60 0.000395845
15 *46:42 0.000131237
16 *46:29 0.000585148
17 *46:23 0.0010923
18 *46:10 0.000407962
19 *46:8 0.000582801
20 *241:CLK *74:54 6.99175e-05
21 *241:CLK *82:14 4.19737e-05
22 *242:CLK *50:6 2.93335e-05
23 *242:CLK *78:18 0
24 *247:CLK *66:77 7.52328e-05
25 *254:CLK *215:B1 5.3304e-05
26 *254:CLK *66:103 0.000157749
27 *256:CLK *256:D 2.78283e-05
28 *256:CLK *88:10 3.2729e-05
29 *257:CLK *94:18 5.3304e-05
30 *46:10 *93:16 8.36198e-05
31 *46:23 *216:A1 3.84694e-05
32 *46:23 *93:16 0.00051186
33 *46:29 *216:A1 5.0894e-05
34 *46:29 *66:103 4.05745e-05
35 *46:29 *67:57 3.55458e-05
36 *46:29 *89:8 0.000116554
37 *46:29 *93:16 6.07929e-05
38 *46:42 *67:35 0.000187414
39 *46:60 *93:16 0.000301303
40 *46:75 *223:A0 0.000160125
41 *46:75 *53:10 3.83677e-05
42 *46:75 *93:16 0.000187765
43 *46:79 *214:A0 5.00861e-05
44 *46:79 *214:A2 9.41704e-05
45 *46:79 *214:S0 0.000134177
46 *46:79 *50:46 9.4267e-05
47 *46:79 *53:10 0.000151346
48 *215:A1 *254:CLK 0.000128682
49 *221:A0 *46:75 9.66585e-05
50 *240:D *46:75 8.04002e-05
51 *254:D *254:CLK 1.64354e-05
52 *259:A *247:CLK 4.71709e-06
53 *17:10 *46:81 0.000234666
54 *18:14 *242:CLK 0.000222901
55 *18:14 *46:81 6.12479e-05
56 *29:10 *46:42 1.01436e-05
57 *30:10 *46:42 0
58 *36:10 *247:CLK 0.000294888
59 *36:10 *46:81 0.000135616
60 *38:12 *46:79 1.24376e-05
61 *38:20 *46:81 2.14599e-05
62 *43:14 *255:CLK 6.437e-05
63 *43:14 *46:10 1.90974e-05
64 *43:14 *46:23 7.74839e-05
65 *43:14 *46:60 8.32465e-05
66 *43:14 *46:75 3.35883e-06
67 *44:33 *247:CLK 9.00055e-05
*RES
1 *261:X *46:8 42.9093 
2 *46:8 *46:10 1.20143 
3 *46:10 *255:CLK 39.9471 
4 *46:10 *46:23 7.54 
5 *46:23 *46:29 21.6907 
6 *46:29 *254:CLK 26.9564 
7 *46:29 *46:42 32.61 
8 *46:42 *253:CLK 23 
9 *46:23 *256:CLK 44.235 
10 *46:8 *46:60 4.01857 
11 *46:60 *257:CLK 38.6214 
12 *46:60 *46:75 20.6136 
13 *46:75 *46:79 23.7207 
14 *46:79 *46:81 5.42714 
15 *46:81 *247:CLK 45.395 
16 *46:81 *241:CLK 39.5743 
17 *46:79 *242:CLK 41.9357 
18 *46:75 *240:CLK 23 
*END

*D_NET *47 0.00421176
*CONN
*I *216:A0 I *D sky130_fd_sc_hd__mux4_2
*I *274:A I *D sky130_fd_sc_hd__dlygate4sd3_1
*I *256:Q O *D sky130_fd_sc_hd__dfxtp_2
*CAP
1 *216:A0 0.000276258
2 *274:A 0.000828348
3 *256:Q 0.000577834
4 *47:8 0.00112992
5 *216:A0 *216:A1 0.000348911
6 *274:A *231:A0 2.53954e-05
7 *274:A *66:118 7.44354e-05
8 *274:A *79:10 3.98818e-05
9 *47:8 *216:A1 0.000230096
10 *47:8 *232:A1 0.000114092
11 *47:8 *233:A0 0.000187734
12 *47:8 *66:103 2.47304e-05
13 *47:8 *67:35 0
14 *47:8 *67:57 0
15 *25:10 *274:A 0.000354116
*RES
1 *256:Q *47:8 44.8357 
2 *47:8 *274:A 49.9521 
3 *256:Q *216:A0 49.9564 
*END

*D_NET *48 0.00322905
*CONN
*I *264:A I *D sky130_fd_sc_hd__dlygate4sd3_1
*I *212:A2 I *D sky130_fd_sc_hd__mux4_2
*I *245:Q O *D sky130_fd_sc_hd__dfxtp_2
*CAP
1 *264:A 0.000251746
2 *212:A2 0.000230103
3 *245:Q 0.000135338
4 *48:8 0.000617187
5 *212:A2 *59:42 0.000431763
6 *212:A2 *92:14 0.000434915