* File: /tools/projects/aryap/bfg_analysis/lut4/pex/LutB.pex.sp
* Created: Mon May  4 14:07:17 2026
* Program "Calibre xRC"
* Version "v2022.2_24.16"
* 
* 
* .include "/tools/projects/aryap/bfg_analysis/lut4/pex/LutB.pex.sp.pex"
* BEGIN of "/tools/projects/aryap/bfg_analysis/lut4/pex/LutB.pex.sp.pex"
* File: /tools/projects/aryap/bfg_analysis/lut4/pex/LutB.pex.sp.pex
* Created: Mon May  4 14:07:17 2026
* Program "Calibre xRC"
* Version "v2022.2_24.16"
* Nominal Temperature: 27C
* Circuit Temperature: 27C
* 
.subckt PM_LutB%VGND 1 2 3 4 5 6 7 8 9 10 11 12 13 14 15 16 17 18 19 20 21 22 23
+ 24 25 26 27 28 29 30 31 32 33 34 35 36 38 39 40 41 42 43 44 45 46 47 48 49 50
+ 51 52 53 54 55 56 57 58 59 60 61 62 63 64 65 66 67 68 69 70 71 72 73 74 75 76
+ 77 78 79 80 81 82 83 84 85 86 87 88 89 90 91 636 638 642 948 952 956 960 968
+ 972 976 980 984 988 992 996 1000 1002 1004 1006 1008 1010 1014 1018 1022 1026
+ 1030 1032 1034 1036 1038 1040 1048 1052 1056 1060 1062 1066 1070 1074 1080
+ 1084 1088 1092 1096 1098 1102 1106 1110 1114 1120 1124 1128 1132 1134 1138
+ 1142 1146 1152 1156 1160 1164 1168 1172 1176 1180 1184 1186 1190 1194 1198
+ 1202 1246 1248 1252 1258 1260 1264 1268 1272 1274 1280 1282 1290 1292 1298
+ 1302 1304 1312 1313 1316 1318 1324 1326 1335 1341 1348 1349 1350 1358 1360
+ 1364 1366 1374 1376 1384 1388 1390 1394 1400 1406 1408 1414 1416 1422 1459
+ 1463 1467 1471 1477 1481 1485 1489 1493 1497 1501 1505 1507 1509 1511 1513
+ 1515 1519 1521 1527 1531 1535 1539 1541 1543 1545 1547 1558 1562 1566 1570
+ 1574 1576 1580 1584 1588 1594 1598 1602 1606 1610 1612 1616 1620 1624 1628
+ 1634 1638 1642 1646 1648 1652 1656 1660 1666 1670 1674 1678 1682 1686 1690
+ 1694 1698 1702 1706 1710 1714 1718 1721 1723 1725 1727 1729 1731 1733 1735
+ 1737 1741 1743 1745 1747 1748 1749 1750 1751 1754 1755 1756 1757 1759 1761
+ 1763 1765 1769 1771 1775 1794 1800 1802 1804 1818 1820 1824 1828 1830 1836
+ 1838 1840 1842 1846 1848 1850 1852 1856 1858 1860 1862 1864 1866 1867 1868
+ 1869 1872 1873 1874 1875 1877 1879 1881 1883 2001 2034 2074 2107 2203 2243
+ 2276 2309 2341 2356 2372 2373 VGND
c4550 2356 VGND 5.89817e-19
c4551 2341 VGND 7.71884e-19
c4552 1883 VGND 9.71787e-20
c4553 1881 VGND 9.71787e-20
c4554 1879 VGND 9.71787e-20
c4555 1877 VGND 1.26792e-19
c4556 1875 VGND 1.79477e-19
c4557 1874 VGND 1.79477e-19
c4558 1873 VGND 1.79477e-19
c4559 1872 VGND 1.21865e-19
c4560 1866 VGND 1.32363e-19
c4561 1864 VGND 1.97184e-19
c4562 1862 VGND 1.97184e-19
c4563 1860 VGND 1.97184e-19
c4564 1848 VGND 1.80307e-19
c4565 1838 VGND 1.19856e-19
c4566 1798 VGND 1.39186e-19
c4567 1769 VGND 1.54791e-19
c4568 1751 VGND 1.96959e-19
c4569 1750 VGND 1.96959e-19
c4570 1749 VGND 1.96959e-19
c4571 1737 VGND 1.87224e-19
c4572 1735 VGND 1.87224e-19
c4573 1733 VGND 1.87224e-19
c4574 1727 VGND 1.19856e-19
c4575 1725 VGND 1.19856e-19
c4576 1723 VGND 1.19856e-19
c4577 1718 VGND 1.15178e-19
c4578 1714 VGND 1.51599e-19
c4579 1682 VGND 1.70577e-19
c4580 1678 VGND 1.70577e-19
c4581 1674 VGND 1.70577e-19
c4582 1670 VGND 1.70577e-19
c4583 1652 VGND 1.25765e-19
c4584 1634 VGND 1.4313e-19
c4585 1628 VGND 1.02912e-19
c4586 1519 VGND 1.75884e-19
c4587 1505 VGND 1.70577e-19
c4588 1501 VGND 1.70577e-19
c4589 1497 VGND 1.70577e-19
c4590 1493 VGND 1.70577e-19
c4591 1414 VGND 5.51971e-20
c4592 1394 VGND 1.7635e-19
c4593 1376 VGND 9.95739e-20
c4594 1358 VGND 1.70577e-19
c4595 1302 VGND 1.67065e-19
c4596 1268 VGND 1.59406e-19
c4597 1264 VGND 1.67065e-19
c4598 1258 VGND 1.70577e-19
c4599 1246 VGND 1.75394e-19
c4600 1164 VGND 1.70577e-19
c4601 1160 VGND 1.70577e-19
c4602 1156 VGND 1.70577e-19
c4603 1152 VGND 2.38564e-19
c4604 1128 VGND 1.45939e-19
c4605 1000 VGND 1.70577e-19
c4606 996 VGND 1.70577e-19
c4607 992 VGND 1.70577e-19
c4608 988 VGND 1.70577e-19
c4609 984 VGND 1.70577e-19
c4610 642 VGND 0.00386935f
c4611 59 VGND 1.74282e-19
c4612 36 VGND 6.58293e-20
r4613 2368 2373 1.79353
r4614 2364 2373 1.29407
r4615 2362 2364 3.0876
r4616 2359 2362 3.0876
r4617 2356 2359 3.0876
r4618 2353 2372 1.79353
r4619 2349 2372 1.29407
r4620 2347 2349 3.0876
r4621 2344 2347 3.0876
r4622 2341 2344 3.0876
r4623 2307 2309 0.130889
r4624 2305 2307 0.130889
r4625 2303 2305 0.261778
r4626 2301 2303 0.146539
r4627 2299 2301 0.0554856
r4628 2297 2364 4.5
r4629 2297 2299 0.00995896
r4630 2294 2297 0.0497948
r4631 2292 2294 0.0754035
r4632 2290 2292 0.170725
r4633 2288 2290 0.0156498
r4634 2286 2288 0.261778
r4635 2284 2286 0.261778
r4636 2282 2284 0.130889
r4637 2279 2282 0.130889
r4638 2274 2276 0.130889
r4639 2272 2274 0.130889
r4640 2270 2272 0.261778
r4641 2268 2270 0.146539
r4642 2266 2268 0.0554856
r4643 2264 2362 4.5
r4644 2264 2266 0.00995896
r4645 2261 2264 0.0497948
r4646 2259 2261 0.0754035
r4647 2257 2259 0.170725
r4648 2255 2257 0.0156498
r4649 2253 2255 0.261778
r4650 2251 2253 0.261778
r4651 2249 2251 0.130889
r4652 2246 2249 0.130889
r4653 2241 2243 0.130889
r4654 2239 2241 0.130889
r4655 2237 2239 0.261778
r4656 2235 2237 0.146539
r4657 2233 2235 0.0554856
r4658 2231 2359 4.5
r4659 2231 2233 0.00995896
r4660 2228 2231 0.0497948
r4661 2226 2228 0.0754035
r4662 2224 2226 0.170725
r4663 2222 2224 0.0156498
r4664 2220 2222 0.261778
r4665 2218 2220 0.261778
r4666 2216 2218 0.130889
r4667 2214 2216 0.130889
r4668 2212 2214 0.130889
r4669 2210 2212 0.130889
r4670 2206 2210 0.130889
r4671 2201 2203 0.130889
r4672 2199 2201 0.130889
r4673 2197 2199 0.392668
r4674 2195 2197 0.0156498
r4675 2193 2195 0.0554856
r4676 2191 2368 4.5
r4677 2191 2193 0.00995896
r4678 2188 2191 0.0497948
r4679 2186 2188 0.392668
r4680 2184 2186 0.130889
r4681 2182 2184 0.261778
r4682 2180 2182 0.0256088
r4683 2178 2180 0.23617
r4684 2176 2178 0.130889
r4685 2174 2176 0.130889
r4686 2172 2174 0.392668
r4687 2170 2172 0.0156498
r4688 2168 2170 0.115239
r4689 2166 2168 0.392668
r4690 2164 2166 0.130889
r4691 2162 2164 0.261778
r4692 2160 2162 0.261778
r4693 2157 2160 0.130889
r4694 2155 2157 1.04711
r4695 2152 2155 0.130889
r4696 2150 2152 0.130889
r4697 2148 2150 0.130889
r4698 2146 2148 0.130889
r4699 2144 2146 0.130889
r4700 2142 2144 0.130889
r4701 2140 2142 0.130889
r4702 2138 2140 0.130889
r4703 2136 2138 0.130889
r4704 2134 2136 0.130889
r4705 2132 2134 0.130889
r4706 2130 2132 0.130889
r4707 2128 2130 0.130889
r4708 2126 2128 0.392668
r4709 2124 2126 0.0156498
r4710 2122 2124 0.115239
r4711 2120 2122 0.0554856
r4712 2117 2353 4.5
r4713 2117 2120 0.125198
r4714 2115 2117 0.211984
r4715 2113 2115 0.130889
r4716 2110 2113 0.261778
r4717 2105 2107 0.130889
r4718 2103 2105 0.130889
r4719 2101 2103 0.130889
r4720 2099 2101 0.261778
r4721 2097 2099 0.146539
r4722 2095 2097 0.115239
r4723 2093 2095 0.0554856
r4724 2091 2349 4.5
r4725 2091 2093 0.125198
r4726 2088 2091 0.00995896
r4727 2086 2088 0.0554856
r4728 2084 2086 0.0156498
r4729 2082 2084 0.261778
r4730 2080 2082 0.261778
r4731 2077 2080 0.130889
r4732 2072 2074 0.130889
r4733 2069 2072 0.130889
r4734 2067 2069 0.130889
r4735 2065 2067 0.130889
r4736 2063 2065 0.130889
r4737 2061 2063 0.130889
r4738 2059 2061 0.261778
r4739 2057 2059 0.146539
r4740 2055 2057 0.115239
r4741 2053 2055 0.0554856
r4742 2050 2347 4.5
r4743 2050 2053 0.125198
r4744 2048 2050 0.00995896
r4745 2046 2048 0.0554856
r4746 2044 2046 0.0156498
r4747 2042 2044 0.261778
r4748 2040 2042 0.261778
r4749 2037 2040 0.130889
r4750 2032 2034 0.130889
r4751 2030 2032 0.130889
r4752 2028 2030 0.130889
r4753 2026 2028 0.261778
r4754 2024 2026 0.146539
r4755 2022 2024 0.115239
r4756 2020 2022 0.0554856
r4757 2018 2344 4.5
r4758 2018 2020 0.125198
r4759 2015 2018 0.00995896
r4760 2013 2015 0.0554856
r4761 2011 2013 0.0156498
r4762 2009 2011 0.261778
r4763 2007 2009 0.261778
r4764 2004 2007 0.130889
r4765 1999 2001 0.00142271
r4766 1997 1999 0.129466
r4767 1995 1997 0.130889
r4768 1993 1995 0.261778
r4769 1991 2356 4.5
r4770 1991 1993 0.211984
r4771 1988 1991 0.0497948
r4772 1986 1988 0.0754035
r4773 1984 1986 0.0554856
r4774 1982 1984 0.115239
r4775 1980 1982 0.0156498
r4776 1978 1980 0.130889
r4777 1975 1978 0.130889
r4778 1973 1975 0.130889
r4779 1971 1973 0.130889
r4780 1969 1971 0.130889
r4781 1967 1969 0.00142271
r4782 1965 1967 0.129466
r4783 1963 1965 0.130889
r4784 1961 1963 0.392668
r4785 1959 1961 0.130889
r4786 1957 1959 0.130889
r4787 1955 1957 0.261778
r4788 1953 1955 0.00142271
r4789 1951 1953 0.129466
r4790 1949 1951 0.130889
r4791 1947 1949 0.392668
r4792 1945 1947 0.130889
r4793 1943 1945 0.130889
r4794 1941 1943 0.261778
r4795 1939 1941 0.130889
r4796 1937 1939 0.130889
r4797 1935 1937 0.130889
r4798 1933 1935 0.130889
r4799 1931 1933 0.130889
r4800 1929 1931 0.392668
r4801 1927 1929 0.0156498
r4802 1925 1927 0.115239
r4803 1923 1925 0.392668
r4804 1921 1923 0.130889
r4805 1919 1921 0.261778
r4806 1917 1919 0.130889
r4807 1915 1917 0.130889
r4808 1913 1915 0.130889
r4809 1911 1913 0.130889
r4810 1909 1911 0.261778
r4811 1907 1909 0.146539
r4812 1905 1907 0.115239
r4813 1903 1905 0.0554856
r4814 1900 2341 4.5
r4815 1900 1903 0.125198
r4816 1898 1900 0.00995896
r4817 1896 1898 0.0554856
r4818 1894 1896 0.0156498
r4819 1892 1894 0.261778
r4820 1890 1892 0.261778
r4821 1887 1890 0.130889
r4822 1885 2201 9.3
r4823 1883 2307 9.3
r4824 1881 2274 9.3
r4825 1879 2241 9.3
r4826 1877 1997 9.3
r4827 1871 2197 4.65
r4828 1866 1988 9.3
r4829 1864 2288 4.65
r4830 1862 2255 4.65
r4831 1860 2222 4.65
r4832 1858 1980 9.3
r4833 1856 1978 9.3
r4834 1854 2184 4.65
r4835 1852 2286 4.65
r4836 1850 2253 4.65
r4837 1848 2220 4.65
r4838 1846 1973 9.3
r4839 1844 2182 6.2
r4840 1842 2284 9.3
r4841 1840 2251 9.3
r4842 1838 2218 9.3
r4843 1836 1971 9.3
r4844 1834 2214 9.3
r4845 1832 1965 9.3
r4846 1830 2279 9.3
r4847 1828 2246 9.3
r4848 1826 2176 9.3
r4849 1824 2210 9.3
r4850 1822 2172 4.65
r4851 1820 1959 9.3
r4852 1818 1951 9.3
r4853 1816 2164 4.65
r4854 1814 2162 4.65
r4855 1810 2157 2.06667
r4856 1808 1810 0.297078
r4857 1806 1808 0.099026
r4858 1804 1945 9.3
r4859 1802 1941 9.3
r4860 1800 1937 9.3
r4861 1798 1933 9.3
r4862 1793 2155 2.06667
r4863 1793 1796 0.402198
r4864 1793 1794 12.0642
r4865 1791 2150 9.3
r4866 1789 1929 4.65
r4867 1787 2144 9.3
r4868 1785 1921 4.65
r4869 1783 2138 9.3
r4870 1781 2072 9.3
r4871 1779 1919 9.3
r4872 1777 2134 9.3
r4873 1775 2107 9.3
r4874 1773 2067 9.3
r4875 1771 2034 9.3
r4876 1769 1917 9.3
r4877 1767 2130 9.3
r4878 1765 2103 9.3
r4879 1763 2063 9.3
r4880 1761 2030 9.3
r4881 1759 1913 9.3
r4882 1753 2126 4.65
r4883 1747 2084 4.65
r4884 1745 2044 4.65
r4885 1743 2011 4.65
r4886 1741 1894 4.65
r4887 1739 2113 4.65
r4888 1737 2082 4.65
r4889 1735 2042 4.65
r4890 1733 2009 4.65
r4891 1731 1892 4.65
r4892 1729 2110 4.65
r4893 1727 2080 9.3
r4894 1725 2040 9.3
r4895 1723 2007 9.3
r4896 1721 1890 9.3
r4897 1718 2001 9.3
r4898 1716 1877 4.30018
r4899 1716 1718 18.5936
r4900 1714 2203 9.3
r4901 1712 1885 7.02821
r4902 1712 1714 19.8984
r4903 1710 2309 9.3
r4904 1708 1883 3.71787
r4905 1708 1710 19.8984
r4906 1706 2276 9.3
r4907 1704 1881 3.71787
r4908 1704 1706 19.8984
r4909 1702 2243 9.3
r4910 1700 1879 3.71787
r4911 1700 1702 19.8984
r4912 1696 1885 0.00168595
r4913 1696 1698 13.5988
r4914 1692 1883 2.43149
r4915 1692 1694 13.5988
r4916 1688 1881 2.43149
r4917 1688 1690 13.5988
r4918 1684 1879 2.43149
r4919 1684 1686 13.5988
r4920 1680 1883 2.43149
r4921 1680 1682 29.0321
r4922 1676 1881 2.43149
r4923 1676 1678 29.0321
r4924 1672 1879 2.43149
r4925 1672 1674 29.0321
r4926 1668 1877 1.96316
r4927 1668 1670 29.0321
r4928 1664 1877 1.96316
r4929 1664 1666 10.2672
r4930 1663 2305 4.65
r4931 1661 1875 6.13603
r4932 1661 1663 27.0749
r4933 1660 1883 3.71787
r4934 1660 1663 22.508
r4935 1659 2272 4.65
r4936 1657 1874 6.13603
r4937 1657 1659 27.0749
r4938 1656 1881 3.71787
r4939 1656 1659 22.508
r4940 1655 2239 4.65
r4941 1653 1873 6.13603
r4942 1653 1655 27.0749
r4943 1652 1879 3.71787
r4944 1652 1655 22.508
r4945 1651 1995 4.65
r4946 1649 1872 6.13603
r4947 1649 1651 27.0749
r4948 1648 1877 4.30018
r4949 1648 1651 19.8984
r4950 1644 1875 0.593901
r4951 1644 1646 19.2771
r4952 1640 1874 0.593901
r4953 1640 1642 19.2771
r4954 1636 1873 0.593901
r4955 1636 1638 19.2771
r4956 1632 1872 0.593901
r4957 1632 1634 19.2771
r4958 1631 2199 4.65
r4959 1629 1871 9.31531
r4960 1629 1631 86.7701
r4961 1628 1885 7.02821
r4962 1628 1631 23.8128
r4963 1627 2303 4.65
r4964 1625 1869 9.31531
r4965 1625 1627 26.7487
r4966 1624 1875 6.13603
r4967 1624 1627 19.246
r4968 1623 2270 4.65
r4969 1621 1868 9.31531
r4970 1621 1623 26.7487
r4971 1620 1874 6.13603
r4972 1620 1623 19.246
r4973 1619 2237 4.65
r4974 1617 1867 9.31531
r4975 1617 1619 26.7487
r4976 1616 1873 6.13603
r4977 1616 1619 19.246
r4978 1615 1993 4.65
r4979 1613 1866 11.4275
r4980 1613 1615 47.9519
r4981 1612 1872 6.13603
r4982 1612 1615 19.246
r4983 1608 1871 1.24149
r4984 1608 1610 10.4343
r4985 1604 1869 1.24149
r4986 1604 1606 10.4343
r4987 1600 1868 1.24149
r4988 1600 1602 10.4343
r4989 1596 1867 1.24149
r4990 1596 1598 10.4343
r4991 1592 1866 2.12513
r4992 1592 1594 8.65398
r4993 1591 2294 4.65
r4994 1589 1864 9.31531
r4995 1589 1591 39.1444
r4996 1588 1869 9.31531
r4997 1588 1591 9.13369
r4998 1587 2261 4.65
r4999 1585 1862 9.31531
r5000 1585 1587 39.1444
r5001 1584 1868 9.31531
r5002 1584 1587 9.13369
r5003 1583 2228 4.65
r5004 1581 1860 9.31531
r5005 1581 1583 39.1444
r5006 1580 1867 9.31531
r5007 1580 1583 9.13369
r5008 1579 1984 9.3
r5009 1577 1858 9.31531
r5010 1577 1579 9.13369
r5011 1576 1866 11.4275
r5012 1576 1579 8.80749
r5013 1572 1864 1.24149
r5014 1572 1574 10.4343
r5015 1568 1862 1.24149
r5016 1568 1570 10.4343
r5017 1564 1860 1.24149
r5018 1564 1566 10.4343
r5019 1560 1858 1.24149
r5020 1560 1562 10.4343
r5021 1559 1856 7.85057
r5022 1558 1858 9.31531
r5023 1558 1559 17.2888
r5024 1553 1856 0.489042
r5025 1552 2188 4.65
r5026 1550 2186 4.65
r5027 1550 1552 90.0321
r5028 1548 1854 6.13603
r5029 1548 1550 19.246
r5030 1547 1871 9.31531
r5031 1547 1552 9.13369
r5032 1546 1852 6.13603
r5033 1545 1864 9.31531
r5034 1545 1546 45.9947
r5035 1544 1850 6.13603
r5036 1543 1862 9.31531
r5037 1543 1544 45.9947
r5038 1542 1848 6.13603
r5039 1541 1860 9.31531
r5040 1541 1542 45.9947
r5041 1537 1854 0.593901
r5042 1537 1539 19.2771
r5043 1533 1852 0.593901
r5044 1533 1535 19.2771
r5045 1529 1850 0.593901
r5046 1529 1531 19.2771
r5047 1525 1848 0.593901
r5048 1525 1527 19.2771
r5049 1524 1975 9.3
r5050 1522 1846 8.61065
r5051 1522 1524 19.246
r5052 1521 1856 7.85057
r5053 1521 1524 20.5508
r5054 1517 1846 0.89609
r5055 1517 1519 10.2672
r5056 1516 1844 5.16603
r5057 1515 1854 6.13603
r5058 1515 1516 49.5829
r5059 1514 1842 3.71787
r5060 1513 1852 6.13603
r5061 1513 1514 49.5829
r5062 1512 1840 3.71787
r5063 1511 1850 6.13603
r5064 1511 1512 49.5829
r5065 1510 1838 3.71787
r5066 1509 1848 6.13603
r5067 1509 1510 49.5829
r5068 1508 1836 7.02821
r5069 1507 1846 8.61065
r5070 1507 1508 13.0481
r5071 1503 1844 1.34256
r5072 1503 1505 29.0321
r5073 1499 1842 2.43149
r5074 1499 1501 29.0321
r5075 1495 1840 2.43149
r5076 1495 1497 29.0321
r5077 1491 1838 2.43149
r5078 1491 1493 29.0321
r5079 1487 1842 2.43149
r5080 1487 1489 13.5988
r5081 1483 1840 2.43149
r5082 1483 1485 13.5988
r5083 1479 1838 2.43149
r5084 1479 1481 13.5988
r5085 1475 1836 0.00168595
r5086 1475 1477 13.5988
r5087 1474 1969 9.3
r5088 1472 1832 5.04977
r5089 1472 1474 18.5936
r5090 1471 1836 7.02821
r5091 1471 1474 19.8984
r5092 1470 2282 9.3
r5093 1468 1830 3.3199
r5094 1468 1470 20.5508
r5095 1467 1842 3.71787
r5096 1467 1470 19.8984
r5097 1466 2249 9.3
r5098 1464 1828 3.3199
r5099 1464 1466 20.5508
r5100 1463 1840 3.71787
r5101 1463 1466 19.8984
r5102 1462 2216 9.3
r5103 1460 1834 10.4059
r5104 1460 1462 20.5508
r5105 1459 1838 3.71787
r5106 1459 1462 19.8984
r5107 1454 1830 3.24686
r5108 1449 1830 3.24686
r5109 1444 1828 3.24686
r5110 1439 1828 3.24686
r5111 1434 1834 3.57586
r5112 1429 1834 3.57586
r5113 1424 1832 1.44159
r5114 1420 1832 1.44159
r5115 1420 1422 10.2672
r5116 1419 2178 6.2
r5117 1417 1826 7.02821
r5118 1417 1419 19.8984
r5119 1416 1844 5.16603
r5120 1416 1419 56.4332
r5121 1412 1826 0.00168595
r5122 1412 1414 13.5988
r5123 1411 2212 9.3
r5124 1409 1824 8.61065
r5125 1409 1411 19.246
r5126 1408 1834 10.4059
r5127 1408 1411 20.5508
r5128 1404 1824 0.89609
r5129 1404 1406 10.3021
r5130 1402 2206 9.3
r5131 1400 1824 8.61065
r5132 1400 1402 19.246
r5133 1399 1963 4.65
r5134 1397 1961 4.65
r5135 1397 1399 90.0321
r5136 1395 1820 11.4275
r5137 1395 1397 17.9412
r5138 1394 1832 5.04977
r5139 1394 1399 19.8984
r5140 1393 2174 4.65
r5141 1391 1822 9.31531
r5142 1391 1393 86.7701
r5143 1390 1826 7.02821
r5144 1390 1393 23.8128
r5145 1386 1822 1.24149
r5146 1386 1388 10.4343
r5147 1382 1820 2.12513
r5148 1382 1384 8.65398
r5149 1381 1957 6.2
r5150 1379 1955 6.2
r5151 1379 1381 60.0214
r5152 1377 1818 8.61065
r5153 1377 1379 18.5936
r5154 1376 1820 11.4275
r5155 1376 1381 8.80749
r5156 1372 1818 0.89609
r5157 1372 1374 10.2672
r5158 1371 2168 4.65
r5159 1369 2166 4.65
r5160 1369 1371 90.0321
r5161 1367 1816 6.13603
r5162 1367 1369 19.246
r5163 1366 1822 9.31531
r5164 1366 1371 9.13369
r5165 1362 1816 0.593901
r5166 1362 1364 19.2771
r5167 1361 1814 5.16603
r5168 1360 1816 6.13603
r5169 1360 1361 49.5829
r5170 1356 1814 1.34256
r5171 1356 1358 29.0321
r5172 1355 1949 4.65
r5173 1353 1947 4.65
r5174 1353 1355 90.0321
r5175 1351 1804 11.4275
r5176 1351 1353 17.9412
r5177 1350 1818 8.61065
r5178 1350 1355 19.8984
r5179 1348 1814 5.16603
r5180 1348 1349 46.9733
r5181 1343 2160 9.3
r5182 1343 1349 13.8678
r5183 1343 1810 4.55519
r5184 1339 1804 2.12513
r5185 1339 1341 8.65398
r5186 1338 1943 4.65
r5187 1336 1802 7.85057
r5188 1336 1338 50.5615
r5189 1335 1804 11.4275
r5190 1335 1338 8.80749
r5191 1330 1802 0.489042
r5192 1329 1939 9.3
r5193 1327 1800 8.61065
r5194 1327 1329 18.5936
r5195 1326 1802 7.85057
r5196 1326 1329 20.5508
r5197 1322 1800 0.89609
r5198 1322 1324 10.2672
r5199 1321 1935 9.3
r5200 1319 1798 7.02821
r5201 1319 1321 19.8984
r5202 1318 1800 8.61065
r5203 1318 1321 19.8984
r5204 1314 1798 0.00168595
r5205 1314 1316 13.5527
r5206 1313 1796 3.75385
r5207 1312 1806 17.841
r5208 1312 1313 21.6516
r5209 1311 2152 9.3
r5210 1311 1794 20.5508
r5211 1309 1791 8.61065
r5212 1309 1311 19.246
r5213 1307 1931 4.65
r5214 1305 1789 9.31531
r5215 1305 1307 86.7701
r5216 1304 1798 7.02821
r5217 1304 1307 23.8128
r5218 1300 1791 0.89609
r5219 1300 1302 10.3021
r5220 1296 1789 1.24149
r5221 1296 1298 10.4031
r5222 1295 2148 4.65
r5223 1293 1787 8.61065
r5224 1293 1295 49.2567
r5225 1292 1791 8.61065
r5226 1292 1295 19.246
r5227 1288 1787 0.89609
r5228 1288 1290 10.3021
r5229 1287 1925 4.65
r5230 1285 1923 4.65
r5231 1285 1287 90.0321
r5232 1283 1785 6.13603
r5233 1283 1285 19.246
r5234 1282 1789 9.31531
r5235 1282 1287 9.13369
r5236 1278 1785 0.593901
r5237 1278 1280 19.2242
r5238 1277 2142 4.65
r5239 1275 1783 8.61065
r5240 1275 1277 49.2567
r5241 1274 1787 8.61065
r5242 1274 1277 19.246
r5243 1272 2074 9.3
r5244 1270 1781 8.61065
r5245 1270 1272 19.246
r5246 1266 1783 0.89609
r5247 1266 1268 10.3021
r5248 1262 1781 0.89609
r5249 1262 1264 10.3021
r5250 1261 1779 5.16603
r5251 1260 1785 6.13603
r5252 1260 1261 49.5829
r5253 1256 1779 1.34256
r5254 1256 1258 28.9668
r5255 1255 2136 9.3
r5256 1253 1777 7.85057
r5257 1253 1255 20.5508
r5258 1252 1783 8.61065
r5259 1252 1255 19.246
r5260 1251 2069 9.3
r5261 1249 1773 10.4059
r5262 1249 1251 20.5508
r5263 1248 1781 8.61065
r5264 1248 1251 19.246
r5265 1247 1769 7.85057
r5266 1246 1779 5.16603
r5267 1246 1247 16.9626
r5268 1241 1777 0.489042
r5269 1236 1775 3.24686
r5270 1231 1775 3.24686
r5271 1226 1773 3.57586
r5272 1221 1773 3.57586
r5273 1216 1771 3.24686
r5274 1211 1771 3.24686
r5275 1206 1769 0.489042
r5276 1205 2132 9.3
r5277 1203 1767 7.02821
r5278 1203 1205 19.8984
r5279 1202 1777 7.85057
r5280 1202 1205 20.5508
r5281 1201 2105 9.3
r5282 1199 1765 3.71787
r5283 1199 1201 19.8984
r5284 1198 1775 3.3199
r5285 1198 1201 20.5508
r5286 1197 2065 9.3
r5287 1195 1763 3.71787
r5288 1195 1197 19.8984
r5289 1194 1773 10.4059
r5290 1194 1197 20.5508
r5291 1193 2032 9.3
r5292 1191 1761 3.71787
r5293 1191 1193 19.8984
r5294 1190 1771 3.3199
r5295 1190 1193 20.5508
r5296 1189 1915 9.3
r5297 1187 1759 3.71787
r5298 1187 1189 19.8984
r5299 1186 1769 7.85057
r5300 1186 1189 20.5508
r5301 1182 1767 0.00168595
r5302 1182 1184 13.5988
r5303 1178 1765 2.43149
r5304 1178 1180 13.5988
r5305 1174 1763 2.43149
r5306 1174 1176 13.5988
r5307 1170 1761 2.43149
r5308 1170 1172 13.5988
r5309 1166 1759 2.43149
r5310 1166 1168 13.5527
r5311 1162 1765 2.43149
r5312 1162 1164 29.0321
r5313 1158 1763 2.43149
r5314 1158 1160 29.0321
r5315 1154 1761 2.43149
r5316 1154 1156 29.0321
r5317 1150 1759 2.43149
r5318 1150 1152 29.0321
r5319 1149 2101 4.65
r5320 1147 1757 6.13603
r5321 1147 1149 27.0749
r5322 1146 1765 3.71787
r5323 1146 1149 22.508
r5324 1145 2061 4.65
r5325 1143 1756 6.13603
r5326 1143 1145 27.0749
r5327 1142 1763 3.71787
r5328 1142 1145 22.508
r5329 1141 2028 4.65
r5330 1139 1755 6.13603
r5331 1139 1141 27.0749
r5332 1138 1761 3.71787
r5333 1138 1141 22.508
r5334 1137 1911 4.65
r5335 1135 1754 6.13603
r5336 1135 1137 27.0749
r5337 1134 1759 3.71787
r5338 1134 1137 22.508
r5339 1130 1757 0.593901
r5340 1130 1132 19.2771
r5341 1126 1756 0.593901
r5342 1126 1128 19.2771
r5343 1122 1755 0.593901
r5344 1122 1124 19.2771
r5345 1118 1754 0.593901
r5346 1118 1120 19.2771
r5347 1117 2128 4.65
r5348 1115 1753 9.31531
r5349 1115 1117 86.7701
r5350 1114 1767 7.02821
r5351 1114 1117 23.8128
r5352 1113 2099 4.65
r5353 1111 1751 9.31531
r5354 1111 1113 26.7487
r5355 1110 1757 6.13603
r5356 1110 1113 19.246
r5357 1109 2059 4.65
r5358 1107 1750 9.31531
r5359 1107 1109 26.7487
r5360 1106 1756 6.13603
r5361 1106 1109 19.246
r5362 1105 2026 4.65
r5363 1103 1749 9.31531
r5364 1103 1105 26.7487
r5365 1102 1755 6.13603
r5366 1102 1105 19.246
r5367 1101 1909 4.65
r5368 1099 1748 9.31531
r5369 1099 1101 26.7487
r5370 1098 1754 6.13603
r5371 1098 1101 19.246
r5372 1094 1753 1.24149
r5373 1094 1096 10.4343
r5374 1090 1751 1.24149
r5375 1090 1092 10.4343
r5376 1086 1750 1.24149
r5377 1086 1088 10.4343
r5378 1082 1749 1.24149
r5379 1082 1084 10.4343
r5380 1078 1748 1.24149
r5381 1078 1080 10.4031
r5382 1077 2095 4.65
r5383 1075 1747 9.31531
r5384 1075 1077 39.1444
r5385 1074 1751 9.31531
r5386 1074 1077 9.13369
r5387 1073 2055 4.65
r5388 1071 1745 9.31531
r5389 1071 1073 39.1444
r5390 1070 1750 9.31531
r5391 1070 1073 9.13369
r5392 1069 2022 4.65
r5393 1067 1743 9.31531
r5394 1067 1069 39.1444
r5395 1066 1749 9.31531
r5396 1066 1069 9.13369
r5397 1065 1905 4.65
r5398 1063 1741 9.31531
r5399 1063 1065 39.1444
r5400 1062 1748 9.31531
r5401 1062 1065 9.13369
r5402 1058 1747 1.24149
r5403 1058 1060 10.4343
r5404 1054 1745 1.24149
r5405 1054 1056 10.4343
r5406 1050 1743 1.24149
r5407 1050 1052 10.4343
r5408 1046 1741 1.24149
r5409 1046 1048 10.4343
r5410 1045 2122 4.65
r5411 1043 2115 4.65
r5412 1043 1045 90.0321
r5413 1041 1739 6.13603
r5414 1041 1043 19.246
r5415 1040 1753 9.31531
r5416 1040 1045 9.13369
r5417 1039 1737 6.13603
r5418 1038 1747 9.31531
r5419 1038 1039 45.9947
r5420 1037 1735 6.13603
r5421 1036 1745 9.31531
r5422 1036 1037 45.9947
r5423 1035 1733 6.13603
r5424 1034 1743 9.31531
r5425 1034 1035 45.9947
r5426 1033 1731 6.13603
r5427 1032 1741 9.31531
r5428 1032 1033 45.9947
r5429 1028 1739 0.593901
r5430 1028 1030 19.2771
r5431 1024 1737 0.593901
r5432 1024 1026 19.2771
r5433 1020 1735 0.593901
r5434 1020 1022 19.2771
r5435 1016 1733 0.593901
r5436 1016 1018 19.2771
r5437 1012 1731 0.593901
r5438 1012 1014 19.2242
r5439 1011 1729 5.16603
r5440 1010 1739 6.13603
r5441 1010 1011 49.5829
r5442 1009 1727 3.71787
r5443 1008 1737 6.13603
r5444 1008 1009 49.5829
r5445 1007 1725 3.71787
r5446 1006 1735 6.13603
r5447 1006 1007 49.5829
r5448 1005 1723 3.71787
r5449 1004 1733 6.13603
r5450 1004 1005 49.5829
r5451 1003 1721 3.71787
r5452 1002 1731 6.13603
r5453 1002 1003 49.5829
r5454 998 1729 1.34256
r5455 998 1000 29.0321
r5456 994 1727 2.43149
r5457 994 996 29.0321
r5458 990 1725 2.43149
r5459 990 992 29.0321
r5460 986 1723 2.43149
r5461 986 988 29.0321
r5462 982 1721 2.43149
r5463 982 984 28.9668
r5464 978 1727 2.43149
r5465 978 980 13.5988
r5466 974 1725 2.43149
r5467 974 976 13.5988
r5468 970 1723 2.43149
r5469 970 972 13.5988
r5470 966 1721 2.43149
r5471 966 968 13.5988
r5472 962 2077 9.3
r5473 960 1727 3.71787
r5474 960 962 19.8984
r5475 958 2037 9.3
r5476 956 1725 3.71787
r5477 956 958 19.8984
r5478 954 2004 9.3
r5479 952 1723 3.71787
r5480 952 954 19.8984
r5481 950 1887 9.3
r5482 948 1721 3.71787
r5483 948 950 19.8984
r5484 642 1553 12.6769
r5485 642 1454 12.7166
r5486 642 1449 12.7166
r5487 642 1444 12.7166
r5488 642 1439 12.7166
r5489 642 1434 12.7166
r5490 642 1429 12.7166
r5491 642 1424 12.7166
r5492 642 1343 12.7166
r5493 642 1330 12.6769
r5494 642 1241 12.7166
r5495 642 1236 12.7166
r5496 642 1231 12.7166
r5497 642 1226 12.7166
r5498 642 1221 12.7166
r5499 642 1216 12.7166
r5500 642 1211 12.7166
r5501 642 1206 12.7166
r5502 640 1806 145.28
r5503 636 640 63.5246
r5504 636 638 4.47876
r5505 91 1666 182
r5506 90 1610 182
r5507 89 1606 182
r5508 88 1602 182
r5509 87 1598 182
r5510 86 1574 182
r5511 85 1570 182
r5512 84 1566 182
r5513 83 1562 182
r5514 82 1422 182
r5515 81 1388 182
r5516 80 1374 182
r5517 79 1298 182
r5518 78 1096 182
r5519 77 1092 182
r5520 76 1088 182
r5521 75 1084 182
r5522 74 1080 182
r5523 73 1060 182
r5524 72 1056 182
r5525 71 1052 182
r5526 70 1048 182
r5527 69 1698 182
r5528 68 1694 182
r5529 67 1690 182
r5530 66 1686 182
r5531 65 1682 182
r5532 64 1678 182
r5533 63 1674 182
r5534 62 1670 182
r5535 61 1646 182
r5536 60 1642 182
r5537 59 1638 182
r5538 58 1634 182
r5539 57 1594 91
r5540 56 1539 182
r5541 55 1535 182
r5542 54 1531 182
r5543 53 1527 182
r5544 52 1519 182
r5545 51 1505 182
r5546 50 1501 182
r5547 49 1497 182
r5548 48 1493 182
r5549 47 1489 182
r5550 46 1485 182
r5551 45 1481 182
r5552 44 1477 182
r5553 43 1414 182
r5554 42 1406 182
r5555 41 1384 91
r5556 40 1364 182
r5557 39 1358 182
r5558 38 1341 91
r5559 36 1324 182
r5560 35 1316 182
r5561 34 1808 182
r5562 34 1796 182
r5563 33 1302 182
r5564 32 1290 182
r5565 31 1280 182
r5566 30 1268 182
r5567 29 1264 182
r5568 28 1258 182
r5569 27 1184 182
r5570 26 1180 182
r5571 25 1176 182
r5572 24 1172 182
r5573 23 1168 182
r5574 22 1164 182
r5575 21 1160 182
r5576 20 1156 182
r5577 19 1152 182
r5578 18 1132 182
r5579 17 1128 182
r5580 16 1124 182
r5581 15 1120 182
r5582 14 1030 182
r5583 13 1026 182
r5584 12 1022 182
r5585 11 1018 182
r5586 10 1014 182
r5587 9 1000 182
r5588 8 996 182
r5589 7 992 182
r5590 6 988 182
r5591 5 984 182
r5592 4 980 182
r5593 3 976 182
r5594 2 972 182
r5595 1 968 182
.ends

.subckt PM_LutB%VPWR 1 2 3 4 5 6 7 8 9 10 11 12 13 14 15 16 17 18 19 20 21 22 23
+ 24 25 26 27 28 29 30 31 32 33 34 35 36 38 39 40 41 42 43 44 45 46 47 48 49 50
+ 51 52 53 54 55 56 57 58 59 60 61 62 63 64 65 66 67 68 69 70 71 72 73 74 75 76
+ 77 78 79 80 81 82 83 84 85 86 87 88 89 90 91 593 607 621 622 623 624 625 749
+ 888 890 895 899 903 907 913 917 921 925 929 933 937 941 945 947 949 951 953
+ 955 959 963 967 971 975 977 983 987 991 995 1001 1005 1009 1013 1015 1019 1023
+ 1027 1033 1037 1041 1045 1049 1051 1057 1061 1065 1069 1075 1079 1083 1087
+ 1089 1093 1097 1101 1107 1111 1115 1119 1123 1127 1131 1135 1139 1141 1145
+ 1149 1153 1157 1163 1169 1175 1181 1187 1193 1199 1205 1209 1213 1219 1221
+ 1225 1229 1233 1235 1241 1243 1251 1253 1259 1263 1265 1277 1279 1285 1287
+ 1289 1295 1299 1305 1307 1313 1317 1318 1321 1323 1327 1329 1337 1341 1349
+ 1353 1355 1361 1365 1371 1373 1379 1383 1389 1395 1401 1407 1413 1419 1425
+ 1429 1433 1437 1441 1445 1451 1455 1459 1463 1467 1471 1475 1479 1481 1483
+ 1485 1487 1491 1493 1499 1503 1507 1511 1513 1517 1521 1525 1531 1535 1541
+ 1545 1549 1553 1555 1559 1563 1567 1573 1575 1581 1585 1589 1593 1595 1599
+ 1603 1607 1613 1617 1621 1625 1627 1631 1635 1639 1645 1649 1653 1657 1661
+ 1665 1669 1673 1677 1683 1687 1691 1695 1699 1702 1704 1706 1708 1710 1714
+ 1716 1718 1720 1721 1722 1723 1724 1726 1727 1728 1729 1730 1731 1732 1733
+ 1735 1737 1739 1741 1745 1747 1755 1757 1761 1764 1767 1774 1802 1810 1812
+ 1814 1816 1820 1822 1824 1826 1829 1830 1831 1832 1834 1835 1836 1837 1838
+ 1839 1840 1841 1843 1845 1847 1849 1936 1967 1998 2036 2140 2178 2209 2240
+ 2272 2287 2302 2303 VGND
c4269 2287 VGND 0.00177585f
c4270 2272 VGND 0.00227289f
c4271 2240 VGND 1.9934e-19
c4272 2209 VGND 1.9934e-19
c4273 2178 VGND 1.9934e-19
c4274 2140 VGND 3.98681e-19
c4275 2036 VGND 1.9934e-19
c4276 1998 VGND 1.9934e-19
c4277 1967 VGND 1.9934e-19
c4278 1774 VGND 1.29193e-19
c4279 1657 VGND 1.5514e-19
c4280 1653 VGND 1.5514e-19
c4281 1649 VGND 1.5514e-19
c4282 1645 VGND 1.5514e-19
c4283 1413 VGND 1.63773e-19
c4284 1371 VGND 1.62974e-19
c4285 1263 VGND 3.27072e-20
c4286 1241 VGND 1.52062e-19
c4287 1229 VGND 1.51861e-19
c4288 1225 VGND 3.27072e-20
c4289 1163 VGND 1.80901e-19
c4290 1111 VGND 1.64755e-19
c4291 945 VGND 1.5514e-19
c4292 941 VGND 1.5514e-19
c4293 937 VGND 1.5514e-19
c4294 933 VGND 1.5514e-19
c4295 929 VGND 2.80781e-19
c4296 749 VGND 6.62913e-19
c4297 625 VGND 0.00177229f
c4298 624 VGND 6.62913e-19
c4299 623 VGND 6.62913e-19
c4300 622 VGND 6.62913e-19
c4301 621 VGND 6.80155e-19
c4302 607 VGND 0.00100388f
c4303 593 VGND 0.0010045f
c4304 36 VGND 3.29888e-20
r4305 2298 2303 0.590276
r4306 2294 2303 2.49732
r4307 2292 2294 1.5438
r4308 2290 2292 1.5438
r4309 2287 2290 3.0876
r4310 2284 2302 0.590276
r4311 2280 2302 2.49732
r4312 2278 2280 3.0876
r4313 2275 2278 3.0876
r4314 2272 2275 3.08703
r4315 2238 2240 0.130889
r4316 2236 2238 0.130889
r4317 2234 2236 0.261778
r4318 2232 2234 0.0483721
r4319 2230 2294 4.5
r4320 2230 2232 0.0327223
r4321 2227 2230 0.180684
r4322 2225 2227 0.0591847
r4323 2223 2225 0.202594
r4324 2221 2223 0.0825171
r4325 2219 2221 0.179261
r4326 2217 2219 0.261778
r4327 2215 2217 0.130889
r4328 2212 2215 0.130889
r4329 2207 2209 0.130889
r4330 2205 2207 0.130889
r4331 2203 2205 0.261778
r4332 2201 2203 0.0483721
r4333 2199 2287 4.5
r4334 2199 2201 0.0327223
r4335 2196 2199 0.180684
r4336 2194 2196 0.0591847
r4337 2192 2194 0.202594
r4338 2190 2192 0.0825171