*SPEF "IEEE 1481-1998"
*DESIGN "clb"
*DATE "Tue Apr  7 14:19:05 2026"
*VENDOR "Cadence Design Systems, Inc."
*PROGRAM "Innovus"
*VERSION "22.11-s119_1"
*DESIGN_FLOW "COUPLING C" "PIN_CAP NONE" "NAME_SCOPE LOCAL"
*DIVIDER /
*DELIMITER :
*BUS_DELIMITER []
*T_UNIT 1 NS
*C_UNIT 1 PF
*R_UNIT 1 OHM
*L_UNIT 1 HENRY

// MMMC spef file for corner 'tt_025C_1v80.extra_rc'

*NAME_MAP

*1 FE_PHN4_x
*2 FE_PHN3_x
*3 FE_OFN2_mux
*4 FE_OFN1_scan_out_0
*5 FE_OFN0_q
*6 clk
*7 addr[3]
*8 addr[2]
*9 addr[1]
*10 addr[0]
*11 x
*12 mux
*13 q
*14 scan_clk
*15 scan_en
*16 scan_in[0]
*17 scan_out[0]
*18 mem[15]
*19 mem[14]
*20 mem[13]
*21 mem[12]
*22 mem[11]
*23 mem[10]
*24 mem[9]
*25 mem[8]
*26 mem[7]
*27 mem[6]
*28 mem[5]
*29 mem[4]
*30 mem[3]
*31 mem[2]
*32 mem[1]
*33 mem[0]
*34 UNCONNECTED
*35 UNCONNECTED0
*36 UNCONNECTED1
*37 UNCONNECTED2
*38 UNCONNECTED3
*39 UNCONNECTED4
*40 UNCONNECTED5
*41 UNCONNECTED6
*42 UNCONNECTED7
*43 UNCONNECTED8
*44 UNCONNECTED9
*45 UNCONNECTED10
*46 UNCONNECTED11
*47 UNCONNECTED12
*48 UNCONNECTED13
*49 UNCONNECTED14
*50 UNCONNECTED15
*51 UNCONNECTED16
*52 UNCONNECTED17
*53 n_0
*54 n_1
*55 n_2
*56 n_3
*57 n_4
*58 n_5
*59 n_6
*60 n_7
*61 n_8
*62 n_9
*63 n_10
*64 n_11
*65 n_12
*66 n_13
*67 n_14
*68 n_15
*69 q_control
*70 FE_PHC4_x
*71 FE_PHC3_x
*72 FE_OFC2_mux
*73 FE_OFC1_scan_out_0
*74 FE_OFC0_q
*75 q_reg_reg
*76 g493__2398
*77 g494__5107
*78 g495__6260
*79 g496__4319
*80 g497__8428
*81 g498__5526
*82 g509__6783
*83 g510__3680
*84 g521__1617
*85 g522__2802
*86 mem_reg\[5\]
*87 mem_reg\[2\]
*88 mux_control_reg
*89 mem_reg\[9\]
*90 mem_reg\[12\]
*91 mem_reg\[13\]
*92 mem_reg\[14\]
*93 mem_reg\[15\]
*94 mem_reg\[3\]
*95 mem_reg\[0\]
*96 mem_reg\[1\]
*97 q_control_reg
*98 mem_reg\[6\]
*99 mem_reg\[7\]
*100 mem_reg\[8\]
*101 mem_reg\[10\]
*102 mem_reg\[11\]
*103 mem_reg\[4\]
*104 g519__1705
*105 g520__5122
*106 g523__8246
*107 g524__7098
*108 g525__6131
*109 g527
*110 g526


*PORTS

*6 I *C 34.44 0
*7 I *C 28.29 0
*8 I *C 22.14 0
*9 I *C 15.99 0
*10 I *C 9.84 0
*11 I *C 3.69 0
*12 O *C 31.98 0
*13 O *C 25.83 0
*14 I *C 19.68 0
*15 I *C 12.3 0
*16 I *C 10.455 0
*17 O *C 0.615 0


*D_NET *1 0.00267504

*CONN
*I *70:Y O *C 11.5 3.22 *L 0 *D CLKBUFX2
*I *71:A I *C 13.34 2.3 *L 0.00191 *D CLKBUFX2
*I *76:B I *C 24.38 5.06 *L 0.0018 *D MX2X1

*CAP
1 *70:Y 6.78866e-05
2 *71:A 6.78866e-05
3 *76:B 6.78866e-05
4 *1:3 0.000146085
5 *1:4 8.58443e-05
6 *1:5 0.000579492
7 *1:6 0.000157094
8 *1:7 0.00063511
9 *1:8 0.000216055
10 *1:9 0.000114172
11 *1:10 0.000160427
12 *1:11 0.000107223
13 *1:10 *68:3 3.476e-05
14 *1:8 *68:4 3.476e-05
15 *1:7 *68:3 2.737e-05
16 *1:5 *68:4 2.737e-05
17 *1:7 *68:5 4.067e-05
18 *1:5 *68:6 4.067e-05
19 *1:11 *68:7 2.78e-06
20 *1:9 *68:8 2.78e-06
21 *1:11 *68:9 2.551e-05
22 *1:9 *68:10 2.551e-05
23 *1:6 *68:11 3.85e-06
24 *1:4 *68:12 3.85000167e-06

*RES
1 *1:11 *76:B 4.5
2 *1:9 *1:11 2.33926
3 *1:10 *1:9 3.41002
4 *1:8 *1:10 0.432381
5 *1:7 *1:8 0.191162
6 *1:5 *1:7 1.29721
7 *1:4 *1:5 3.41002
8 *1:6 *71:A 4.5
9 *1:4 *1:6 0.964256
10 *1:3 *1:6 1.64287
11 *70:Y *1:3 4.5
*END

*D_NET *2 0.00034392

*CONN
*I *71:Y O *C 13.8 3.22 *L 0 *D CLKBUFX2
*I *75:SI I *C 17.02 1.84 *L 0.0018 *D SDFFX1

*CAP
1 *2:2 0.00017196
2 *2:3 0.00017196

*RES
1 *2:3 *75:SI 4.5
2 *2:2 *2:3 2.87498
3 *71:Y *2:2 4.5
*END

*D_NET *3 0.0001474

*CONN
*I *76:Y O *C 24.84 5.06 *L 0 *D MX2X1
*I *72:A I *C 26.68 5.98 *L 0.0114 *D BUFX16

*CAP
1 *3:2 7.37e-05
2 *3:3 7.37e-05

*RES
1 *3:3 *72:A 4.5
2 *3:2 *3:3 1.23212
3 *76:Y *3:2 4.5
*END

*D_NET *4 0.00532103

*CONN
*I *88:D I *C 0.92 10.12 *L 0.00187 *D SDFFX1
*I *88:Q O *C 9.2 11.5 *L 0 *D SDFFX1
*I *76:S0 I *C 23 6.44 *L 0.00376 *D MX2X1
*I *73:A I *C 0.92 2.3 *L 0.0114 *D BUFX16

*CAP
1 *88:D 6.78819e-05
2 *88:Q 6.78819e-05
3 *76:S0 6.78819e-05
4 *73:A 6.78819e-05
5 *4:4 0.000659032
6 *4:5 0.000521125
7 *4:6 0.000721104
8 *4:7 0.00086735
9 *4:8 0.000145161
10 *4:9 0.000145161
11 *4:10 0.000202759
12 *4:11 0.000184137
13 *4:12 0.000114138
14 *4:13 0.000162591
15 *4:14 0.000104662
16 *4:15 4.85457e-05
17 *4:16 5.54808e-05
18 *4:17 0.000348806
19 *4:18 5.21853e-05
20 *4:19 4.52502e-05
21 *4:4 *69:10 0.00018539
22 *4:5 *69:6 0.000185389997
23 *4:6 *6:2 0.00015063
24 *4:7 *6:3 0.000150629997

*RES
1 *4:19 *76:S0 4.5
2 *4:18 *4:19 0.0357056
3 *4:6 *4:18 3.41002
4 *4:7 *4:6 1.80169
5 *4:15 *88:Q 4.5
6 *4:7 *4:17 0.382256
7 *4:15 *4:16 0.0892639
8 *4:4 *4:17 0.360352
9 *4:4 *4:16 3.41002
10 *4:5 *4:4 1.29721
11 *4:14 *4:5 3.41002
12 *4:13 *88:D 4.5
13 *4:13 *4:14 0.500015
14 *4:10 *73:A 4.5
15 *4:12 *4:13 0.821434
16 *4:10 *4:11 2.87498
17 *4:9 *4:12 0.410683
18 *4:8 *4:11 0.410683
19 *4:8 *4:9 2.4643
*END

*D_NET *5 0.00024566

*CONN
*I *75:Q O *C 23.92 3.22 *L 0 *D SDFFX1
*I *74:A I *C 26.22 2.3 *L 0.0114 *D BUFX16

*CAP
1 *5:2 0.00012283
2 *5:3 0.00012283

*RES
1 *5:3 *74:A 4.5
2 *5:2 *5:3 2.05355
3 *75:Q *5:2 4.5
*END

*D_NET *6 0.00392434

*CONN
*P *6 I *C 34.44 0 *L 0
*I *75:CK I *C 17.02 3.68 *L 0.00182 *D SDFFX1

*CAP
1 *6 0.000355142
2 *75:CK 6.78795e-05
3 *6:2 0.0006539
4 *6:3 0.000643593
5 *6:4 0.000147812
6 *6:5 0.000140888
7 *6:6 0.000461507
8 *6:7 0.00046913
9 *6:8 0.000400452
10 *6:9 8.03319e-05
11 *6:2 *4:6 0.00015063
12 *6:3 *4:7 0.000150629997
13 *6:2 *14:28 6.7e-05
14 *6:3 *14:25 6.7e-05
15 *6:4 *14:29 3.422e-05
16 *6:5 *14:30 3.42199982e-05

*RES
1 *6 *6:8 0.764511
2 *6:9 *6:8 0.0963364
3 *6:6 *6:9 3.41002
4 *6:7 *6:6 0.903214
5 *6:7 *6:2 0.0955811
6 *6:3 *6:2 1.72959
7 *6:4 *6:3 3.41002
8 *6:5 *6:4 2.57142
9 *75:CK *6:5 4.5
*END

*D_NET *7 0.00151239

*CONN
*P *7 I *C 28.29 0 *L 0
*I *77:S0 I *C 27.14 10.12 *L 0.00376 *D MX2X1

*CAP
1 *7 0.000317777
2 *77:S0 6.78825e-05
3 *7:2 0.000221778
4 *7:3 0.000228717
5 *7:4 8.21104e-05
6 *7:5 7.94188e-05
7 *7:6 0.00035279
8 *7:4 *68:14 2.317e-05
9 *7:5 *68:3 2.317e-05
10 *7:2 *68:16 5.779e-05
11 *7:3 *68:15 5.77900016e-05

*RES
1 *7 *7:6 0.668999
2 *7:4 *7:6 3.41002
3 *7:2 *77:S0 4.5
4 *7:5 *7:4 0.180176
5 *7:3 *7:2 3.85716
6 *7:3 *7:5 3.41002
*END

*D_NET *8 0.00378881

*CONN
*P *8 I *C 22.14 0 *L 0
*I *110:A I *C 25.3 10.58 *L 0.00306 *D INVX1
*I *79:A0 I *C 21.62 10.58 *L 0.00299 *D OAI222X1
*I *78:A0 I *C 24.38 14.26 *L 0.00299 *D OAI222X1

*CAP
1 *8 0.000630334
2 *110:A 6.78802e-05
3 *79:A0 6.78802e-05
4 *78:A0 6.78802e-05
5 *8:4 0.000213275
6 *8:5 0.00022022
7 *8:6 7.58297e-05
8 *8:7 7.6845e-05
9 *8:8 0.000143568
10 *8:9 0.000169132
11 *8:10 0.00012509
12 *8:11 7.63272e-05
13 *8:12 0.000221245
14 *8:13 0.000447699
15 *8:14 0.000102308
16 *8:15 0.000248556
17 *8:16 0.00066535
18 *8:17 7.23981e-05
19 *8:18 9.69572e-05

*RES
1 *8:18 *110:A 4.5
2 *8:4 *78:A0 4.5
3 *8:18 *8:6 0.821434
4 *8:5 *8:4 2.3839
5 *8:7 *8:6 0.866066
6 *8:14 *8:5 3.41002
7 *8:12 *8:7 3.41002
8 *8:15 *8:14 0.144127
9 *8:13 *8:12 0.432381
10 *8:13 *8:15 0.382256
11 *8 *8:16 1.33793
12 *8:17 *79:A0 4.5
13 *8:10 *8:13 0.206818
14 *8:10 *8:16 3.41002
15 *8:8 *8:17 0.410683
16 *8:11 *8:10 0.153534
17 *8:9 *8:8 1.27682
18 *8:9 *8:11 3.41002
*END

*D_NET *9 0.0103678

*CONN
*P *9 I *C 15.99 0 *L 0
*I *109:A I *C 20.7 18.86 *L 0.00306 *D INVX1
*I *108:B I *C 17.48 22.08 *L 0.00311 *D NOR2X1
*I *105:S0 I *C 3.22 23 *L 0.00376 *D MX2X1
*I *104:S0 I *C 11.5 18.4 *L 0.00376 *D MX2X1
*I *85:B0 I *C 23.46 13.8 *L 0.00306 *D AOI22X1
*I *84:B0 I *C 23.92 19.32 *L 0.00306 *D AOI22X1

*CAP
1 *9 0.000140861
2 *109:A 6.78878e-05
3 *108:B 6.78878e-05
4 *105:S0 6.78878e-05
5 *104:S0 6.78878e-05
6 *85:B0 6.78878e-05
7 *84:B0 6.78878e-05
8 *9:7 0.000186951
9 *9:8 0.000186931
10 *9:9 0.000100695
11 *9:10 7.61444e-05
12 *9:11 0.000147443
13 *9:12 9.83017e-05
14 *9:13 0.000281982
15 *9:14 0.000306034
16 *9:15 0.00017646
17 *9:16 0.000104205
18 *9:17 0.000295324
19 *9:18 0.000295324
20 *9:19 0.000242115
21 *9:20 0.000203025
22 *9:21 0.000127559
23 *9:22 0.000151112
24 *9:23 4.50724e-05
25 *9:24 0.000135895
26 *9:25 0.000138588
27 *9:26 0.000185076
28 *9:27 0.000258767
29 *9:28 0.000268041
30 *9:29 0.000265349
31 *9:30 8.21275e-05
32 *9:31 7.51871e-05
33 *9:32 0.000119861
34 *9:34 0.000284933
35 *9:35 0.000284933
36 *9:36 0.000170956
37 *9:37 7.23951e-05
38 *9:38 0.000277455
39 *9:39 0.0001765
40 *9:40 0.000237907
41 *9:41 0.00025087
42 *9:42 0.000143514
43 *9:43 0.000186173
44 *9:44 8.03326e-05
45 *9:45 0.000665955
46 *9:46 0.001307
47 *9:47 0.00077698
48 *9:48 5.35285e-05
49 *9:49 0.000102669
50 *9:50 9.69655e-05
51 *9:51 9.69655e-05

*RES
1 *9:51 *84:B0 4.5
2 *9:50 *85:B0 4.5
3 *9:9 *9:51 0.821434
4 *9:8 *9:50 0.821434
5 *9:10 *9:9 0.821434
6 *9:8 *9:7 2.4643
7 *9:7 *9:10 0.410683
8 *9:48 *9:7 0.410683
9 *9:48 *9:49 0.410683
10 *9:16 *9:49 1.23212
11 *9:15 *109:A 4.5
12 *9:16 *9:15 0.821434
13 *9:27 *9:15 2.05355
14 *9:27 *9:26 1.64287
15 *9:20 *9:26 0.821434
16 *9:19 *108:B 4.5
17 *9:20 *9:19 1.64287
18 *9 *9:43 0.286674
19 *9:19 *9:32 1.11607
20 *9:43 *9:45 0.0963364
21 *9:24 *9:32 3.41002
22 *9:45 *9:46 1.43351
23 *9:25 *9:24 0.233459
24 *9:46 *9:47 1.43351
25 *9:44 *9:25 3.41002
26 *9:40 *9:47 0.192673
27 *9:42 *9:44 0.0963364
28 *9:37 *104:S0 4.5
29 *9:40 *9:41 0.286674
30 *9:41 *9:42 0.191162
31 *9:37 *9:12 0.410683
32 *9:17 *9:41 3.41002
33 *9:12 *9:11 1.23212
34 *9:18 *9:17 0.48175
35 *9:22 *9:11 1.23212
36 *9:39 *9:18 3.41002
37 *9:22 *9:21 1.40179
38 *9:38 *9:39 0.191162
39 *9:23 *9:21 3.41002
40 *9:36 *9:38 0.289078
41 *9:13 *9:23 0.0195694
42 *9:13 *9:36 3.41002
43 *9:14 *9:13 0.674423
44 *9:34 *9:14 3.41002
45 *9:34 *9:35 0.477837
46 *9:28 *9:35 3.41002
47 *9:29 *9:28 0.459023
48 *9:30 *9:29 3.41002
49 *9:31 *105:S0 4.5
50 *9:31 *9:30 0.428604
51 *9:33 *9:31 0.189857
*END

*D_NET *10 0.00945235

*CONN
*P *10 I *C 9.84 0 *L 0
*I *108:A I *C 17.02 22.54 *L 0.00302 *D NOR2X1
*I *107:A I *C 18.86 18.86 *L 0.00302 *D NOR2X1
*I *106:A I *C 28.06 13.8 *L 0.00306 *D NAND2X1
*I *81:B0 I *C 16.1 18.86 *L 0.00308 *D AOI222X1
*I *80:B0 I *C 13.34 27.14 *L 0.00308 *D AOI222X1

*CAP
1 *10 0.000685332
2 *108:A 6.78754e-05
3 *107:A 6.78754e-05
4 *106:A 6.78754e-05
5 *81:B0 6.78754e-05
6 *80:B0 6.78754e-05
7 *10:6 0.000166087
8 *10:7 9.8357e-05
9 *10:8 0.000429161
10 *10:9 0.000376225
11 *10:10 0.000641806
12 *10:11 0.000641806
13 *10:12 0.000108045
14 *10:13 0.000163668
15 *10:14 0.000112048
16 *10:15 8.99171e-05
17 *10:16 0.000171952
18 *10:17 0.000175475
19 *10:18 0.000142418
20 *10:19 0.000337181
21 *10:20 0.000373783
22 *10:21 8.50673e-05
23 *10:22 9.20131e-05
24 *10:23 0.000292585
25 *10:24 0.000292585
26 *10:25 0.000730653281
27 *10:27 0.000196179
28 *10:28 0.000185866
29 *10:29 0.000596675
30 *10:30 0.000596675
31 *10:31 6.09853e-05
32 *10:32 4.70936e-05
33 *10:12 *63:4 1.6e-06
34 *10:13 *63:5 1.6e-06
35 *10:10 *63:4 4.105e-05
36 *10:11 *63:5 4.105e-05
37 *10:6 *63:6 6.9e-06
38 *10:7 *63:7 6.9e-06
39 *10:14 *63:6 8.966e-05
40 *10:15 *63:7 8.96599978e-05
41 *10:18 *60:7 0.00018814
42 *10:19 *60:8 0.00018814
43 *10:19 *60:7 6.045e-05
44 *10:20 *60:8 6.045e-05
45 *10:19 *60:8 0.00022074
46 *10:20 *60:9 0.00022074
47 *10:21 *60:7 3.1e-06
48 *10:22 *60:8 3.10002235e-06

*RES
1 *10 *10:25 1.05122
2 *10:25 *10:29 0.096374
3 *10:29 *10:30 1.05122
4 *10:27 *10:30 0.096374
5 *10:32 *106:A 4.5
6 *10:27 *10:28 0.286709
7 *10:31 *10:32 0.0714188
8 *10:9 *10:28 3.40997
9 *10:10 *10:31 3.40997
10 *10:9 *10:8 0.83662
11 *10:11 *10:10 1.44134
12 *10:8 *10:13 0.191162
13 *10:7 *10:11 3.40997
14 *10:13 *10:12 0.144147
15 *10:7 *10:6 0.892872
16 *10:15 *10:12 3.40997
17 *10:6 *10:16 1.64284
18 *10:14 *81:B0 4.5
19 *10:15 *10:14 1.17855
20 *10:17 *107:A 4.5
21 *10:16 *10:17 0.821454
22 *10:14 *10:20 0.821454
23 *10:20 *10:17 1.64284
24 *10:19 *108:A 4.5
25 *10:20 *10:19 4.51785707
26 *10:19 *10:18 2.47318
27 *10:23 *10:18 3.40997
28 *10:24 *10:23 0.57652
29 *10:22 *10:24 3.40997
30 *10:21 *80:B0 4.5
31 *10:22 *10:21 0.401765
32 *10:26 *10:21 0.580588
*END

*D_NET *11 0.00144854

*CONN
*I *70:A I *C 11.04 2.3 *L 0.00191 *D CLKBUFX2
*P *11 I *C 3.69 0 *L 0

*CAP
1 *70:A 6.78783e-05
2 *11 4.59984e-05
3 *11:2 5.15952e-05
4 *11:3 5.85474e-05
5 *11:4 8.10132e-05
6 *11:5 0.0005731
7 *11:6 0.000570407

*RES
1 *11:2 *70:A 4.5
2 *11:3 *11:2 0.142891
3 *11:6 *11:3 3.41002
4 *11:5 *11:6 1.1515
5 *11:4 *11:5 3.41002
6 *11 *11:4 0.0955811
*END

*D_NET *12 0.000982459

*CONN
*P *12 O *C 31.98 0 *L 1
*I *72:Y O *C 28.06 5.06 *L 0 *D BUFX16

*CAP
1 *12 0.000137998
2 *72:Y 6.78787e-05
3 *12:2 0.000177101
4 *12:3 0.00018404
5 *12:4 0.000173009
6 *12:5 0.000119871
7 *12:6 0.000122559

*RES
1 *12 *12:4 0.286674
2 *12:6 *12:4 3.41002
3 *12:5 *12:6 0.181755
4 *12:2 *72:Y 4.5
5 *12:3 *12:5 3.41002
6 *12:3 *12:2 2.33926
*END

*D_NET *13 0.0008435

*CONN
*P *13 O *C 25.83 0 *L 1
*I *74:Y O *C 27.6 3.22 *L 0 *D BUFX16

*CAP
1 *13 0.000137998
2 *74:Y 6.78803e-05
3 *13:2 0.000177451
4 *13:3 0.000180139062
5 *13:4 0.000173009
6 *13:5 5.00409e-05
7 *13:6 5.69788e-05

*RES
1 *13:5 *74:Y 4.5
2 *13:5 *13:6 0.124969
3 *13:2 *13:6 3.41002
4 *13:3 *13:2 0.277267
5 *13:4 *13:3 3.41002
6 *13 *13:4 0.286674
*END

*D_NET *14 0.019779

*CONN
*P *14 I *C 19.68 0 *L 0
*I *103:CK I *C 5.52 36.8 *L 0.00182 *D SDFFX1
*I *102:CK I *C 13.8 4.6 *L 0.00182 *D SDFFX1
*I *101:CK I *C 16.1 36.8 *L 0.00182 *D SDFFX1
*I *100:CK I *C 23.46 29.44 *L 0.00182 *D SDFFX1
*I *99:CK I *C 2.3 28.52 *L 0.00182 *D SDFFX1
*I *98:CK I *C 12.88 29.44 *L 0.00182 *D SDFFX1
*I *97:CK I *C 3.22 4.6 *L 0.00182 *D SDFFX1
*I *96:CK I *C 26.68 20.24 *L 0.00182 *D SDFFX1
*I *95:CK I *C 23.92 28.52 *L 0.00182 *D SDFFX1
*I *94:CK I *C 26.22 21.16 *L 0.00182 *D SDFFX1
*I *93:CK I *C 2.3 20.24 *L 0.00182 *D SDFFX1
*I *92:CK I *C 8.28 21.16 *L 0.00182 *D SDFFX1
*I *91:CK I *C 2.3 12.88 *L 0.00182 *D SDFFX1
*I *90:CK I *C 12.88 12.88 *L 0.00182 *D SDFFX1
*I *89:CK I *C 12.88 11.96 *L 0.00182 *D SDFFX1
*I *88:CK I *C 2.3 11.96 *L 0.00182 *D SDFFX1
*I *87:CK I *C 26.68 36.8 *L 0.00182 *D SDFFX1
*I *86:CK I *C 2.3 29.44 *L 0.00182 *D SDFFX1

*CAP
1 *14 0.000322778
2 *103:CK 6.78741e-05
3 *102:CK 6.78741e-05
4 *101:CK 6.78741e-05
5 *100:CK 6.78741e-05
6 *99:CK 6.78741e-05
7 *98:CK 6.78741e-05
8 *97:CK 6.78741e-05
9 *96:CK 6.78741e-05
10 *95:CK 6.78741e-05
11 *94:CK 6.78741e-05
12 *93:CK 6.78741e-05
13 *92:CK 6.78741e-05
14 *91:CK 6.78741e-05
15 *90:CK 6.78741e-05
16 *89:CK 6.78741e-05
17 *88:CK 6.78741e-05
18 *87:CK 6.78741e-05
19 *86:CK 6.78741e-05
20 *14:19 0.000275671
21 *14:20 0.000226537
22 *14:21 0.000203142
23 *14:22 0.000104875
24 *14:23 0.00019263
25 *14:24 0.000190213
26 *14:25 0.000377678
27 *14:26 0.0009841
28 *14:27 0.000840273
29 *14:28 0.000236538
30 *14:29 0.000316831
31 *14:30 0.000219585
32 *14:31 5.04701e-05
33 *14:32 5.74077e-05
34 *14:33 0.000110821
35 *14:34 0.000110821
36 *14:35 8.13138e-05
37 *14:36 8.37465e-05
38 *14:37 0.000145314
39 *14:38 0.0002927
40 *14:39 0.000198622
41 *14:40 0.000223189
42 *14:41 9.80571e-05
43 *14:42 0.000124081
44 *14:43 6.05762e-05
45 *14:44 6.05762e-05
46 *14:45 0.000128916
47 *14:46 0.000172629
48 *14:47 0.000254858
49 *14:48 0.000131544
50 *14:49 0.000156096
51 *14:50 0.000538323
52 *14:51 0.000538323
53 *14:52 0.000149999
54 *14:53 0.000679898
55 *14:54 0.00067784
56 *14:55 0.000154309
57 *14:56 0.000154309
58 *14:57 0.000240007
59 *14:58 0.00033829
60 *14:59 6.52763e-05
61 *14:60 4.78573e-05
62 *14:61 6.19276e-05
63 *14:62 0.00016494
64 *14:63 0.000287594
65 *14:64 0.000133421
66 *14:65 0.000109094
67 *14:66 0.000109094
68 *14:67 9.30717e-05
69 *14:68 9.01134e-05
70 *14:69 0.000102367
71 *14:70 0.0002064
72 *14:71 0.00032922
73 *14:72 0.00015518
74 *14:73 0.000107292
75 *14:74 0.000107292
76 *14:75 6.92707e-05
77 *14:76 7.19736e-05
78 *14:77 0.000139893
79 *14:78 0.000142355
80 *14:79 0.000150134
81 *14:80 4.63406e-05
82 *14:81 9.02186e-05
83 *14:82 7.15982e-05
84 *14:83 6.67029e-05
85 *14:84 4.80825e-05
86 *14:85 0.000357781
87 *14:86 0.000543414
88 *14:87 0.000543414
89 *14:90 0.000219795
90 *14:91 7.23941e-05
91 *14:92 7.23941e-05
92 *14:93 7.23941e-05
93 *14:94 7.23941e-05
94 *14:95 9.40477e-05
95 *14:96 8.81163e-05
96 *14:50 *27:15 6.1e-05
97 *14:51 *27:13 6.1e-05
98 *14:53 *27:4 1.257e-05
99 *14:54 *27:5 1.257e-05
100 *14:63 *27:12 0.0001243
101 *14:64 *27:11 0.0001243
102 *14:65 *27:12 2.525e-05
103 *14:66 *27:11 2.525e-05
104 *14:67 *27:12 4.78e-06
105 *14:68 *27:11 4.78e-06
106 *14:68 *27:12 2.392e-05
107 *14:69 *27:11 2.392e-05
108 *14:70 *27:8 3.68e-06
109 *14:71 *27:7 3.68000296e-06
110 *14:53 *28:16 0.00010167
111 *14:54 *28:10 0.00010167
112 *14:54 *28:16 6.7e-06
113 *14:59 *28:10 6.7e-06
114 *14:60 *28:11 3.192e-05
115 *14:61 *28:9 3.192e-05
116 *14:60 *28:9 0.0001243
117 *14:61 *28:8 0.0001243
118 *14:62 *28:7 8.38e-06
119 *14:60 *28:6 8.3800033e-06
120 *14:50 *33:5 3.96e-06
121 *14:51 *33:6 3.96e-06
122 *14:55 *33:17 5.868e-05
123 *14:56 *33:16 5.868e-05
124 *14:57 *33:17 4.307e-05
125 *14:58 *33:16 4.307e-05
126 *14:57 *33:15 2.581e-05
127 *14:58 *33:14 2.581e-05
128 *14:48 *33:13 2.974e-05
129 *14:49 *33:12 2.97399985e-05
130 *14:28 *6:2 6.7e-05
131 *14:25 *6:3 6.7e-05
132 *14:29 *6:4 3.422e-05
133 *14:30 *6:5 3.42199982e-05
134 *14:29 *69:15 6.249e-05
135 *14:30 *69:14 6.249e-05
136 *14:29 *69:14 7.471e-05
137 *14:30 *69:13 7.471e-05
138 *14:31 *69:14 2.41e-06
139 *14:32 *69:13 2.41e-06
140 *14:29 *69:8 1.32e-06
141 *14:30 *69:7 1.32e-06
142 *14:33 *69:9 2.7e-06
143 *14:34 *69:8 2.7e-06
144 *14:33 *69:5 2.15e-05
145 *14:34 *69:4 2.15000059e-05
146 *14:72 *29:8 1.586e-05
147 *14:63 *29:9 1.586e-05
148 *14:65 *29:8 1.231e-05
149 *14:66 *29:9 1.231e-05
150 *14:68 *29:9 0.00015622
151 *14:69 *29:13 0.00015622
152 *14:70 *29:12 3.124e-05
153 *14:71 *29:11 3.12399903e-05
154 *14:39 *20:16 6.82e-06
155 *14:40 *20:15 6.82e-06
156 *14:21 *20:16 1.32e-06
157 *14:22 *20:15 1.32e-06
158 *14:41 *20:4 8.7e-07
159 *14:42 *20:5 8.7e-07
160 *14:43 *20:14 3.124e-05
161 *14:44 *20:13 3.124e-05
162 *14:41 *20:11 2.581e-05
163 *14:42 *20:10 2.581e-05
164 *14:42 *20:10 0.00018746
165 *14:45 *20:9 0.000187459998

*RES
1 *14:52 *96:CK 4.49997
2 *14:94 *94:CK 4.49997
3 *14:52 *14:47 1.64288
4 *14:94 *14:47 0.410721
5 *14:92 *90:CK 4.49997
6 *14:47 *14:46 2.46432
7 *14:91 *89:CK 4.49997
8 *14:92 *14:37 0.410721
9 *14:49 *14:46 0.821442
10 *14:91 *14:38 0.410721
11 *14:38 *14:37 2.0536
12 *14:49 *14:48 2.46432
13 *14:96 *87:CK 4.49997
14 *14:38 *14:29 2.46432
15 *14 *14:85 0.668953
16 *14:48 *14:56 0.410721
17 *14:95 *14:96 0.821442
18 *14:31 *102:CK 4.49997
19 *14:30 *14:29 5.5
20 *14:28 *14:85 3.40997
21 *14:56 *14:55 2.87496
22 *14:57 *14:95 0.821442
23 *14:32 *14:31 0.160713
24 *14:25 *14:30 3.40997
25 *14:25 *14:28 0.56086
26 *14:58 *14:55 0.410721
27 *14:58 *14:57 4.10712
28 *14:26 *14:32 3.40997
29 *14:26 *14:25 0.360367
30 *14:93 *95:CK 4.49997
31 *14:79 *14:58 2.0536
32 *14:27 *14:26 1.65757
33 *14:78 *14:93 0.410721
34 *14:80 *100:CK 4.49997
35 *14:80 *14:79 0.410721
36 *14:36 *14:27 3.40997
37 *14:78 *14:77 1.6339
38 *14:77 *14:80 0.00889587
39 *14:35 *97:CK 4.49997
40 *14:36 *14:35 0.571434
41 *14:50 *14:77 3.40997
42 *14:81 *101:CK 4.49997
43 *14:74 *14:35 0.410721
44 *14:51 *14:50 1.22511
45 *14:82 *14:81 0.821442
46 *14:74 *14:73 1.64288
47 *14:64 *14:51 3.40997
48 *14:72 *14:82 0.410721
49 *14:73 *14:34 0.410721
50 *14:83 *103:CK 4.49997
51 *14:64 *14:63 2.0625
52 *14:63 *14:72 2.46432
53 *14:34 *14:33 2.46432
54 *14:84 *14:83 0.410721
55 *14:65 *14:63 1.23216
56 *14:44 *14:33 0.410721
57 *14:70 *14:84 0.410721
58 *14:66 *14:65 1.23216
59 *14:44 *14:43 0.821442
60 *14:71 *14:70 4.10712
61 *14:67 *14:66 1.23216
62 *14:45 *88:CK 4.49997
63 *14:45 *14:43 0.410721
64 *14:62 *14:71 2.46432
65 *14:68 *98:CK 4.49997
66 *14:68 *14:67 0.410721
67 *14:42 *91:CK 4.49997
68 *14:45 *14:42 2.46432
69 *14:60 *86:CK 4.49997
70 *14:60 *14:62 0.410721
71 *14:69 *14:68 2.0536
72 *14:42 *14:41 0.821442
73 *14:61 *99:CK 4.49997
74 *14:61 *14:60 2.0536
75 *14:53 *14:69 3.40997
76 *14:41 *14:40 1.23216
77 *14:90 *92:CK 4.49997
78 *14:54 *14:61 3.40997
79 *14:89 *14:54 0.104149
80 *14:54 *14:53 1.65757
81 *14:40 *14:39 3.28568
82 *14:19 *14:90 2.87496
83 *14:59 *14:54 0.0712509
84 *14:22 *14:39 0.821442
85 *14:20 *14:19 2.0536
86 *14:86 *14:59 3.40997
87 *14:22 *14:21 0.821442
88 *14:21 *14:20 2.0536
89 *14:87 *14:86 1.14681
90 *14:24 *93:CK 4.49997
91 *14:24 *14:21 0.410721
92 *14:76 *14:87 3.40997
93 *14:24 *14:23 1.26783
94 *14:76 *14:75 0.0712509
95 *14:75 *14:23 3.40997
96 *14:88 *14:75 0.104317
*END

*D_NET *15 0.0196627

*CONN
*P *15 I *C 12.3 0 *L 0
*I *103:SE I *C 4.14 36.34 *L 0.00352 *D SDFFX1
*I *102:SE I *C 12.42 5.06 *L 0.00352 *D SDFFX1
*I *101:SE I *C 14.72 36.34 *L 0.00352 *D SDFFX1
*I *100:SE I *C 22.08 29.9 *L 0.00352 *D SDFFX1
*I *99:SE I *C 0.92 28.06 *L 0.00352 *D SDFFX1
*I *98:SE I *C 11.5 29.9 *L 0.00352 *D SDFFX1
*I *97:SE I *C 1.84 5.06 *L 0.00352 *D SDFFX1
*I *96:SE I *C 25.3 19.78 *L 0.00352 *D SDFFX1
*I *95:SE I *C 22.54 28.06 *L 0.00352 *D SDFFX1
*I *94:SE I *C 24.84 21.62 *L 0.00352 *D SDFFX1
*I *93:SE I *C 0.92 19.78 *L 0.00352 *D SDFFX1
*I *92:SE I *C 6.9 21.62 *L 0.00352 *D SDFFX1
*I *91:SE I *C 0.92 13.34 *L 0.00352 *D SDFFX1
*I *90:SE I *C 11.5 13.34 *L 0.00352 *D SDFFX1
*I *89:SE I *C 11.5 11.5 *L 0.00352 *D SDFFX1
*I *88:SE I *C 0.92 11.5 *L 0.00352 *D SDFFX1
*I *87:SE I *C 25.3 36.34 *L 0.00352 *D SDFFX1
*I *86:SE I *C 0.92 29.9 *L 0.00352 *D SDFFX1

*CAP
1 *15 0.000289024
2 *103:SE 6.78782e-05
3 *102:SE 6.78782e-05
4 *101:SE 6.78782e-05
5 *100:SE 6.78782e-05
6 *99:SE 6.78782e-05
7 *98:SE 6.78782e-05
8 *97:SE 6.78782e-05
9 *96:SE 6.78782e-05
10 *95:SE 6.78782e-05
11 *94:SE 6.78782e-05
12 *93:SE 6.78782e-05
13 *92:SE 6.78782e-05
14 *91:SE 6.78782e-05
15 *90:SE 6.78782e-05
16 *89:SE 6.78782e-05
17 *88:SE 6.78782e-05
18 *87:SE 6.78782e-05
19 *86:SE 6.78782e-05
20 *15:19 8.08156e-05
21 *15:20 0.000106391
22 *15:21 8.88223e-05
23 *15:22 0.000111552
24 *15:23 5.3351e-05
25 *15:24 0.000182368
26 *15:25 0.000182368
27 *15:26 5.63117e-05
28 *15:27 4.93764e-05
29 *15:28 0.000296662
30 *15:29 0.000296662
31 *15:30 0.000637401
32 *15:31 0.000637401
33 *15:32 0.000100988
34 *15:33 0.000103684
35 *15:34 5.51712e-05
36 *15:35 0.000133752
37 *15:36 0.000137496
38 *15:37 4.88695e-05
39 *15:38 3.7856e-05
40 *15:39 5.15423e-05
41 *15:40 8.5562e-05
42 *15:41 0.000114904
43 *15:42 5.67149e-05
44 *15:43 0.000183727
45 *15:44 0.000183727
46 *15:45 0.000361533
47 *15:46 0.000361533
48 *15:47 0.000158901
49 *15:48 0.000177529
50 *15:49 5.44224e-05
51 *15:50 7.8765e-05
52 *15:51 5.49753e-05
53 *15:52 0.000105746
54 *15:53 8.11842e-05
55 *15:54 0.000261363
56 *15:55 0.000261363
57 *15:56 0.000111875
58 *15:57 0.000132415
59 *15:58 9.88911e-05
60 *15:59 0.000374759
61 *15:60 0.000227367
62 *15:61 0.00049078
63 *15:62 0.00049078
64 *15:63 0.00012146
65 *15:64 9.64718e-05
66 *15:65 0.000110515
67 *15:66 0.000135065
68 *15:67 0.000674289
69 *15:68 0.000441934
70 *15:69 0.000103557
71 *15:70 7.79816e-05
72 *15:71 0.000162818
73 *15:72 0.000106541
74 *15:73 7.7394e-05
75 *15:74 4.63005e-05
76 *15:75 0.000161309
77 *15:76 0.000112186
78 *15:77 0.000113568
79 *15:78 0.000113568
80 *15:79 0.000112405
81 *15:80 7.12191e-05
82 *15:81 5.251e-05
83 *15:82 4.16923e-05
84 *15:83 6.03208e-05
85 *15:84 0.000251905
86 *15:85 0.000105515
87 *15:86 0.000334345
88 *15:87 0.000754989219
89 *15:88 0.000313435
90 *15:89 0.000516482
91 *15:90 5.1139e-05
92 *15:91 4.84433e-05
93 *15:93 0.000101149
94 *15:94 8.25206e-05
95 *15:95 7.24057e-05
96 *15:96 4.48374e-05
97 *15:97 5.17842e-05
98 *15:98 7.24057e-05
99 *15:99 8.62878e-05
100 *15:100 0.000111471
101 *15:101 4.85585e-05
102 *15:102 5.54938e-05
103 *15:103 0.000296996
104 *15:67 *23:8 3.476e-05
105 *15:68 *23:9 3.476e-05
106 *15:67 *23:9 0.00013904
107 *15:68 *23:6 0.00013904
108 *15:67 *23:6 1.159e-05
109 *15:68 *23:7 1.159e-05
110 *15:61 *23:6 0.00016221
111 *15:62 *23:7 0.00016221
112 *15:69 *23:16 4.92e-06
113 *15:70 *23:15 4.92e-06
114 *15:71 *23:4 1.914e-05
115 *15:72 *23:5 1.914e-05
116 *15:73 *23:4 6.15e-06
117 *15:74 *23:5 6.15e-06
118 *15:65 *23:4 9.033e-05
119 *15:66 *23:5 9.033e-05
120 *15:75 *23:11 7.8e-07
121 *15:76 *23:10 7.8000715e-07
122 *15:30 *20:17 0.00018539
123 *15:31 *20:12 0.00018539
124 *15:28 *20:14 1.29e-05
125 *15:29 *20:13 1.29e-05
126 *15:38 *20:10 1.066e-05
127 *15:39 *20:9 1.066e-05
128 *15:39 *20:10 2.24e-06
129 *15:40 *20:9 2.24e-06
130 *15:40 *20:10 5.162e-05
131 *15:41 *20:9 5.162e-05
132 *15:41 *20:10 2.581e-05
133 *15:42 *20:9 2.581e-05
134 *15:43 *20:8 3.124e-05
135 *15:44 *20:7 3.12399884e-05
136 *15:77 *29:14 1.766e-05
137 *15:78 *29:8 1.766e-05
138 *15:79 *29:8 4.68e-06
139 *15:80 *29:9 4.68e-06
140 *15:81 *29:8 6.452e-05
141 *15:63 *29:9 6.452e-05
142 *15:63 *29:8 0.00015418
143 *15:64 *29:9 0.00015418
144 *15:75 *29:8 5.162e-05
145 *15:76 *29:9 5.162e-05
146 *15:82 *29:9 1.29e-05
147 *15:83 *29:13 1.29e-05
148 *15:84 *29:12 1.29e-05
149 *15:85 *29:11 1.28999972e-05
150 *15:19 *28:4 7.742e-05
151 *15:20 *28:5 7.742e-05
152 *15:56 *28:9 5.134e-05
153 *15:57 *28:8 5.134e-05
154 *15:57 *28:9 1.29e-05
155 *15:58 *28:8 1.29e-05
156 *15:59 *28:7 6.249e-05
157 *15:60 *28:6 6.24899964e-05
158 *15:19 *26:5 0.00021667
159 *15:20 *26:4 0.00021667
160 *15:21 *26:7 5.162e-05
161 *15:22 *26:6 5.162e-05
162 *15:22 *26:9 8.38e-06
163 *15:23 *26:8 8.38e-06
164 *15:24 *26:5 0.00031244
165 *15:25 *26:4 0.000312439988

*RES
1 *15:48 *96:SE 4.49998
2 *15:48 *15:47 1.23214
3 *15:51 *15:47 0.410689
4 *15:50 *94:SE 4.49998
5 *15:51 *15:50 0.410689
6 *15:50 *15:49 0.410689
7 *15:53 *15:49 0.410689
8 *15:53 *15:52 0.821454
9 *15:55 *15:52 0.821454
10 *15:55 *15:54 2.87497
11 *15:72 *15:54 0.821454
12 *15:71 *95:SE 4.49998
13 *15:72 *15:71 1.64283
14 *15:71 *15:100 1.23214
15 *15:74 *15:100 0.410689
16 *15:73 *100:SE 4.49998
17 *15:74 *15:73 0.410689
18 *15:73 *15:99 0.821454
19 *15:66 *15:99 0.821454
20 *15:66 *15:65 2.87497
21 *15:101 *87:SE 4.49998
22 *15:65 *15:70 0.410689
23 *15:101 *15:102 0.0982165
24 *15:70 *15:69 1.74105
25 *15:103 *15:102 3.40998
26 *15:67 *15:69 3.40998
27 *15:67 *15:103 0.576514
28 *15:68 *15:67 1.1531
29 *15:80 *15:68 3.40998
30 *15:98 *101:SE 4.49998
31 *15:80 *15:79 0.312473
32 *15:79 *15:98 0.410689
33 *15:78 *15:79 1.23214
34 *15:78 *15:77 0.821454
35 *15:83 *98:SE 4.49998
36 *15:75 *15:77 1.23214
37 *15:83 *15:82 0.410689
38 *15:76 *15:75 2.46429
39 *15:82 *15:64 0.410689
40 *15:76 *15:81 0.410689
41 *15:64 *15:63 2.02675
42 *15:63 *15:81 0.848226
43 *15:61 *15:63 3.40998
44 *15:62 *15:61 1.29719
45 *15:96 *92:SE 4.49998
46 *15:85 *15:62 3.40998
47 *15:95 *103:SE 4.49998
48 *15:96 *15:97 0.0267726
49 *15:85 *15:84 1.66968
50 *15:84 *15:95 0.410689
51 *15:45 *15:97 3.40998
52 *15:59 *15:84 2.87497
53 *15:46 *15:45 0.864771
54 *15:60 *15:59 4.92857122
55 *15:20 *15:46 3.40998
56 *15:56 *86:SE 4.49998
57 *15:60 *15:56 0.410689
58 *15:20 *15:19 3.25889
59 *15:57 *99:SE 4.49998
60 *15:57 *15:56 1.64283
61 *15:58 *15:19 0.410689
62 *15:58 *15:57 1.64283
63 *15:24 *15:58 0.410689
64 *15:93 *97:SE 4.49998
65 *15:25 *15:24 4.92857122
66 *15:93 *15:94 0.821454
67 *15:25 *15:21 0.410689
68 *15:29 *15:94 0.410689
69 *15:22 *93:SE 4.49998
70 *15:22 *15:21 1.64283
71 *15:29 *15:28 3.28574
72 *15:23 *15:22 0.821454
73 *15:42 *15:28 0.410689
74 *15:43 *15:23 0.410689
75 *15:41 *88:SE 4.49998
76 *15:42 *15:41 0.821454
77 *15:44 *15:43 3.69643
78 *15:40 *91:SE 4.49998
79 *15:41 *15:40 1.64283
80 *15:44 *15:38 0.410689
81 *15:27 *102:SE 4.49998
82 *15:40 *15:39 0.0714438
83 *15:39 *15:38 0.339321
84 *15:27 *15:26 0.107166
85 *15:31 *15:39 3.40998
86 *15:32 *15:26 3.40998
87 *15 *15:86 0.382262
88 *15:31 *15:30 1.6575
89 *15:33 *15:32 0.115137
90 *15:88 *15:86 0.0963364
91 *15:34 *15:30 3.40998
92 *15:87 *15:33 3.40998
93 *15:88 *15:87 0.477846
94 *15:37 *89:SE 4.49998
95 *15:35 *90:SE 4.49998
96 *15:35 *15:34 0.0714438
97 *15:87 *15:89 0.860108
98 *15:37 *15:36 0.0803931
99 *15:36 *15:35 1.56251
100 *15:90 *15:89 3.40998
101 *15:91 *15:36 3.40998
102 *15:91 *15:90 0.0289536
103 *15:92 *15:91 0.0706166
*END

*D_NET *16 0.00289752

*CONN
*P *16 I *C 10.455 0 *L 0
*I *97:SI I *C 3.22 6.44 *L 0.0018 *D SDFFX1

*CAP
1 *16 0.000590595
2 *97:SI 6.78831e-05
3 *16:2 0.000503763
4 *16:3 0.000493453
5 *16:4 0.000224536
6 *16:5 0.000232164
7 *16:6 8.32334e-05
8 *16:7 7.62933e-05
9 *16:8 0.000625610781

*RES
1 *16 *16:8 0.764511
2 *16:4 *16:8 3.41002
3 *16:5 *16:4 0.268684
4 *16:5 *16:2 0.0955811
5 *16:7 *97:SI 4.5
6 *16:3 *16:2 0.86483
7 *16:6 *16:7 0.303566
8 *16:6 *16:3 3.41002
*END

*D_NET *17 0.000604041

*CONN
*P *17 O *C 0.615 0 *L 1
*I *73:Y O *C 2.3 3.22 *L 0 *D BUFX16

*CAP
1 *17 4.53214e-05
2 *73:Y 6.78796e-05
3 *17:2 9.00497e-05
4 *17:3 9.27404e-05
5 *17:4 0.00011203
6 *17:5 0.00010172
7 *17:6 5.06208e-05
8 *17:7 4.36786e-05

*RES
1 *17:7 *73:Y 4.5
2 *17:6 *17:7 0.00892639
3 *17:2 *17:6 3.41002
4 *17:3 *17:2 0.16761
5 *17:5 *17:3 3.41002
6 *17:4 *17:5 0.191162
7 *17 *17:4 0.0963364
*END

*D_NET *18 0.00259138

*CONN
*I *104:B I *C 12.88 19.78 *L 0.0018 *D MX2X1
*I *93:D I *C 0.92 18.4 *L 0.00187 *D SDFFX1
*I *93:Q O *C 9.2 19.78 *L 0 *D SDFFX1
*I *91:SI I *C 2.3 14.72 *L 0.0018 *D SDFFX1

*CAP
1 *104:B 6.78801e-05
2 *93:D 6.78801e-05
3 *93:Q 6.78801e-05
4 *91:SI 6.78801e-05
5 *18:4 0.000259516
6 *18:5 8.99975e-05
7 *18:6 0.00055323
8 *18:7 0.00055323
9 *18:9 0.000121527
10 *18:10 0.000159718
11 *18:11 0.000160663
12 *18:12 9.62444e-05
13 *18:13 0.000239518
14 *18:14 8.61987e-05

*RES
1 *18:9 *93:D 4.5
2 *18:10 *91:SI 4.5
3 *18:9 *18:12 1.23212
4 *18:10 *18:11 1.69643
5 *18:11 *18:12 0.357124
6 *18:7 *18:11 3.41002
7 *18:7 *18:6 1.08099
8 *18:14 *104:B 4.5
9 *18:5 *18:6 3.41002
10 *18:13 *18:14 1.23212
11 *18:5 *18:4 0.357124
12 *18:4 *18:13 3.28574
13 *18:4 *93:Q 4.5
14 *18:8 *18:4 0.535034
*END

*D_NET *19 0.0045991

*CONN
*I *96:SI I *C 26.68 18.4 *L 0.0018 *D SDFFX1
*I *92:D I *C 6.9 23 *L 0.00187 *D SDFFX1
*I *92:Q O *C 15.18 21.62 *L 0 *D SDFFX1
*I *81:C1 I *C 17.94 18.86 *L 0.00303 *D AOI222X1

*CAP
1 *96:SI 6.78814e-05
2 *92:D 6.78814e-05
3 *92:Q 0.000135763
4 *81:C1 6.78814e-05
5 *19:4 6.74602e-05
6 *19:5 6.05226e-05
7 *19:6 7.17871e-05
8 *19:7 6.48494e-05
9 *19:8 9.05787e-05
10 *19:9 9.75163e-05
11 *19:10 0.000139668
12 *19:11 0.000139668
13 *19:12 0.000189727
14 *19:13 0.000200033
15 *19:14 0.000134742
16 *19:15 0.00010917
17 *19:16 0.000258903