*SPEF "ieee 1481-1999"
*DESIGN "clb"
*DATE "01:13:15 Wednesday April 08, 2026"
*VENDOR "The OpenROAD Project"
*PROGRAM "OpenROAD"
*VERSION "dcf36133a369abc8f3c5e5738cd4d82e4903c0e0"
*DESIGN_FLOW "NAME_SCOPE LOCAL" "PIN_CAP NONE"
*DIVIDER /
*DELIMITER :
*BUS_DELIMITER []
*T_UNIT 1 NS
*C_UNIT 1 PF
*R_UNIT 1 OHM
*L_UNIT 1 HENRY

*NAME_MAP
*3 addr[0]
*4 addr[1]
*5 addr[2]
*6 addr[3]
*7 clk
*8 mux
*9 q
*10 scan_clk
*11 scan_en
*12 scan_in
*13 scan_out
*14 x
*15 _00_
*16 _01_
*17 _02_
*18 _03_
*19 _04_
*20 _05_
*21 _06_
*22 _07_
*23 _08_
*24 _09_
*25 _10_
*26 _11_
*27 _12_
*28 _13_
*29 _14_
*30 _15_
*31 _16_
*32 _17_
*33 _18_
*34 _19_
*35 _20_
*36 _21_
*37 _22_
*38 _23_
*39 _24_
*40 _25_
*41 _26_
*42 _27_
*43 _28_
*44 clknet_0_scan_clk
*45 clknet_1_0__leaf_scan_clk
*46 clknet_1_1__leaf_scan_clk
*47 mem\[0\]
*48 mem\[10\]
*49 mem\[11\]
*50 mem\[12\]
*51 mem\[13\]
*52 mem\[14\]
*53 mem\[15\]
*54 mem\[1\]
*55 mem\[2\]
*56 mem\[3\]
*57 mem\[4\]
*58 mem\[5\]
*59 mem\[6\]
*60 mem\[7\]
*61 mem\[8\]
*62 mem\[9\]
*63 net1
*64 net10
*65 net11
*66 net12
*67 net13
*68 net14
*69 net15
*70 net16
*71 net17
*72 net18
*73 net19
*74 net2
*75 net20
*76 net21
*77 net22
*78 net23
*79 net24
*80 net25
*81 net26
*82 net27
*83 net28
*84 net29
*85 net3
*86 net30
*87 net31
*88 net32
*89 net33
*90 net34
*91 net35
*92 net36
*93 net37
*94 net4
*95 net5
*96 net6
*97 net7
*98 net8
*99 net9
*100 q_control
*101 FILLER_0_55
*102 FILLER_10_24
*103 FILLER_10_27
*104 FILLER_10_3
*105 FILLER_10_61
*106 FILLER_10_64
*107 FILLER_11_19
*108 FILLER_11_22
*109 FILLER_11_31
*110 FILLER_11_34
*111 FILLER_11_43
*112 FILLER_11_46
*113 FILLER_11_55
*114 FILLER_11_65
*115 FILLER_12_14
*116 FILLER_12_23
*117 FILLER_12_26
*118 FILLER_12_29
*119 FILLER_12_3
*120 FILLER_12_32
*121 FILLER_12_51
*122 FILLER_12_54
*123 FILLER_12_57
*124 FILLER_12_74
*125 FILLER_13_27
*126 FILLER_13_45
*127 FILLER_13_48
*128 FILLER_13_51
*129 FILLER_13_54
*130 FILLER_13_57
*131 FILLER_13_60
*132 FILLER_13_63
*133 FILLER_13_66
*134 FILLER_1_54
*135 FILLER_1_82
*136 FILLER_2_62
*137 FILLER_2_80
*138 FILLER_3_3
*139 FILLER_3_35
*140 FILLER_3_54
*141 FILLER_3_6
*142 FILLER_3_82
*143 FILLER_4_22
*144 FILLER_4_29
*145 FILLER_4_3
*146 FILLER_5_3
*147 FILLER_5_54
*148 FILLER_5_6
*149 FILLER_5_77
*150 FILLER_5_80
*151 FILLER_6_27
*152 FILLER_6_3
*153 FILLER_6_38
*154 FILLER_6_6
*155 FILLER_6_78
*156 FILLER_6_81
*157 FILLER_7_3
*158 FILLER_7_35
*159 FILLER_7_55
*160 FILLER_7_6
*161 FILLER_7_60
*162 FILLER_7_80
*163 FILLER_8_55
*164 FILLER_8_82
*165 FILLER_9_54
*166 PHY_EDGE_ROW_0_Left_14
*167 PHY_EDGE_ROW_0_Right_0
*168 PHY_EDGE_ROW_10_Left_24
*169 PHY_EDGE_ROW_10_Right_10
*170 PHY_EDGE_ROW_11_Left_25
*171 PHY_EDGE_ROW_11_Right_11
*172 PHY_EDGE_ROW_12_Left_26
*173 PHY_EDGE_ROW_12_Right_12
*174 PHY_EDGE_ROW_13_Left_27
*175 PHY_EDGE_ROW_13_Right_13
*176 PHY_EDGE_ROW_1_Left_15
*177 PHY_EDGE_ROW_1_Right_1
*178 PHY_EDGE_ROW_2_Left_16
*179 PHY_EDGE_ROW_2_Right_2
*180 PHY_EDGE_ROW_3_Left_17
*181 PHY_EDGE_ROW_3_Right_3
*182 PHY_EDGE_ROW_4_Left_18
*183 PHY_EDGE_ROW_4_Right_4
*184 PHY_EDGE_ROW_5_Left_19
*185 PHY_EDGE_ROW_5_Right_5
*186 PHY_EDGE_ROW_6_Left_20
*187 PHY_EDGE_ROW_6_Right_6
*188 PHY_EDGE_ROW_7_Left_21
*189 PHY_EDGE_ROW_7_Right_7
*190 PHY_EDGE_ROW_8_Left_22
*191 PHY_EDGE_ROW_8_Right_8
*192 PHY_EDGE_ROW_9_Left_23
*193 PHY_EDGE_ROW_9_Right_9
*194 TAP_TAPCELL_ROW_0_28
*195 TAP_TAPCELL_ROW_0_29
*196 TAP_TAPCELL_ROW_10_39
*197 TAP_TAPCELL_ROW_11_40
*198 TAP_TAPCELL_ROW_12_41
*199 TAP_TAPCELL_ROW_13_42
*200 TAP_TAPCELL_ROW_13_43
*201 TAP_TAPCELL_ROW_1_30
*202 TAP_TAPCELL_ROW_2_31
*203 TAP_TAPCELL_ROW_3_32
*204 TAP_TAPCELL_ROW_4_33
*205 TAP_TAPCELL_ROW_5_34
*206 TAP_TAPCELL_ROW_6_35
*207 TAP_TAPCELL_ROW_7_36
*208 TAP_TAPCELL_ROW_8_37
*209 TAP_TAPCELL_ROW_9_38
*210 _29_
*211 _30_
*212 _31_
*213 _32_
*214 _33_
*215 _34_
*216 _35_
*217 _36_
*218 _37_
*219 _38_
*220 _39_
*221 _40_
*222 _41_
*223 _42_
*224 _43_
*225 _44_
*226 _45_
*227 _46_
*228 _47_
*229 _48_
*230 _49_
*231 _50_
*232 _51_
*233 _52_
*234 _53_
*235 _54_
*236 _55_
*237 _56_
*238 _57_
*239 _58_
*240 _59_
*241 _60_
*242 _61_
*243 _62_
*244 _63_
*245 _64_
*246 _65_
*247 _66_
*248 _67_
*249 _68_
*250 _69_
*251 _70_
*252 _71_
*253 _72_
*254 _73_
*255 _74_
*256 _75_
*257 _76_
*258 _77_
*259 clkbuf_0_scan_clk
*260 clkbuf_1_0__f_scan_clk
*261 clkbuf_1_1__f_scan_clk
*262 fanout12
*263 fanout13
*264 hold14
*265 hold15
*266 hold16
*267 hold17
*268 hold18
*269 hold19
*270 hold20
*271 hold21
*272 hold22
*273 hold23
*274 hold24
*275 hold25
*276 hold26
*277 hold27
*278 hold28
*279 hold29
*280 hold30
*281 hold31
*282 hold32
*283 hold33
*284 hold34
*285 hold35
*286 hold36
*287 hold37
*288 input1
*289 input2
*290 input3
*291 input4
*292 input5
*293 input6
*294 input7
*295 input8
*296 output10
*297 output11
*298 output9

*PORTS
addr[0] I
addr[1] I
addr[2] I
addr[3] I
clk I
mux O
q O
scan_clk I
scan_en I
scan_in I
scan_out O
x I

*D_NET *3 0.00211472
*CONN
*P addr[0] I
*I *288:A I *D sky130_fd_sc_hd__clkdlybuf4s25_1
*CAP
1 addr[0] 0.000972149
2 *288:A 0.000972149
3 *288:A *289:A 0.000113626
4 *288:A *293:A 5.67975e-05
5 *288:A *10:18 0
*RES
1 addr[0] *288:A 35.484 
*END

*D_NET *4 0.00245705
*CONN
*P addr[1] I
*I *289:A I *D sky130_fd_sc_hd__clkdlybuf4s25_1
*CAP
1 addr[1] 0.000918182
2 *289:A 0.000918182
3 *289:A *248:D 0
4 *289:A *293:A 0.000247249
5 *289:A *10:18 0.000233872
6 *289:A *96:6 2.59355e-05
7 *288:A *289:A 0.000113626
*RES
1 addr[1] *289:A 32.204 
*END

*D_NET *5 0.00685116
*CONN
*P addr[2] I
*I *290:A I *D sky130_fd_sc_hd__clkdlybuf4s25_1
*CAP
1 addr[2] 0.000782325
2 *290:A 0.00145364
3 *5:11 0.00223596
4 *290:A *231:A1 0.000246782
5 *290:A *231:S 0.000173083
6 *290:A *237:A0 0
7 *290:A *238:A0 0.000384643
8 *290:A *255:D 0.000146991
9 *290:A *258:CLK 0.00130528
10 *290:A *272:A 0
11 *290:A *294:A 9.90367e-05
12 *290:A *77:12 2.34204e-05
13 *290:A *85:12 0
14 *290:A *93:14 0
15 *290:A *94:18 0
*RES
1 addr[2] *5:11 24.0179 
2 *5:11 *290:A 48.8714 
*END

*D_NET *6 0.00382019
*CONN
*P addr[3] I
*I *291:A I *D sky130_fd_sc_hd__clkdlybuf4s25_1
*CAP
1 addr[3] 0.00121992
2 *291:A 0.00121992
3 *291:A q 0.000253314
4 *291:A scan_out 0
5 *291:A *278:A 0
6 *291:A *292:A 0.000655416
7 *291:A *294:A 0.000241158
8 *291:A *295:A 0
9 *291:A *64:14 0.000230475
*RES
1 addr[3] *291:A 44.8752 
*END

*D_NET *7 0.00320218
*CONN
*P clk I
*I *292:A I *D sky130_fd_sc_hd__clkdlybuf4s25_1
*CAP
1 clk 0.000891769
2 *292:A 0.000891769
3 *292:A mux 8.62161e-05
4 *292:A q 7.78217e-05
5 *292:A scan_out 0.000227532
6 *292:A *294:A 0
7 *292:A *295:A 0.000100313
8 *292:A *297:A 0.000271339
9 *291:A *292:A 0.000655416
*RES
1 clk *292:A 36.9122 
*END

*D_NET *8 0.00188456
*CONN
*P mux O
*I *298:X O *D sky130_fd_sc_hd__clkdlybuf4s25_1
*CAP
1 mux 0.000412011
2 *298:X 0.000412011
3 mux scan_out 0.000122795
4 mux *294:A 0.00040499
5 mux *295:A 9.63964e-05
6 mux *64:14 7.24957e-05
7 mux *65:10 0.000149481
8 mux *65:21 0.000128161
9 *292:A mux 8.62161e-05
*RES
1 *298:X mux 23.4868 
*END

*D_NET *9 0.00330532
*CONN
*P q O
*I *296:X O *D sky130_fd_sc_hd__clkdlybuf4s25_1
*CAP
1 q 0.00105989
2 *296:X 0.00105989
3 q scan_out 9.54627e-05
4 q *295:A 0.000758931
5 *291:A q 0.000253314
6 *292:A q 7.78217e-05
*RES
1 *296:X q 41.3714 
*END

*D_NET *10 0.00437827
*CONN
*P scan_clk I
*I *259:A I *D sky130_fd_sc_hd__clkbuf_16
*CAP
1 scan_clk 0.00177182
2 *259:A 0.000108719
3 *10:18 0.00188054
4 *259:A *247:CLK 5.09021e-06
5 *259:A *247:D 6.05161e-06
6 *10:18 *248:D 0
7 *10:18 *293:A 0.000295537
8 *10:18 *44:33 3.65826e-05
9 *10:18 *45:10 0
10 *10:18 *61:10 4.00537e-05
11 *288:A *10:18 0
12 *289:A *10:18 0.000233872
*RES
1 scan_clk *10:18 22.9694 
2 *10:18 *259:A 15.175 
*END

*D_NET *11 0.00169101
*CONN
*P scan_en I
*I *293:A I *D sky130_fd_sc_hd__clkdlybuf4s25_1
*CAP
1 scan_en 0.000467448
2 *293:A 0.000467448
3 *293:A *245:D 0.000138859
4 *293:A *248:D 1.76699e-05
5 *293:A *73:12 0
6 *288:A *293:A 5.67975e-05
7 *289:A *293:A 0.000247249
8 *10:18 *293:A 0.000295537
*RES
1 scan_en *293:A 24.3482 
*END

*D_NET *12 0.0043517
*CONN
*P scan_in I
*I *294:A I *D sky130_fd_sc_hd__clkdlybuf4s25_1
*CAP
1 scan_in 0.00153788
2 *294:A 0.00153788
3 *294:A *239:A0 5.52302e-05
4 *294:A *278:A 7.92975e-05
5 *294:A *64:14 0.000146903
6 *294:A *65:21 0.000249333
7 *294:A *100:23 0
8 mux *294:A 0.00040499
9 *290:A *294:A 9.90367e-05
10 *291:A *294:A 0.000241158
11 *292:A *294:A 0
*RES
1 scan_in *294:A 45.0219 
*END

*D_NET *13 0.00228452
*CONN
*P scan_out O
*I *297:X O *D sky130_fd_sc_hd__clkdlybuf4s25_1
*CAP
1 scan_out 0.00063607
2 *297:X 0.00063607
3 scan_out *295:A 0.000566594
4 mux scan_out 0.000122795
5 q scan_out 9.54627e-05
6 *291:A scan_out 0
7 *292:A scan_out 0.000227532
*RES
1 *297:X scan_out 31.2834 
*END

*D_NET *14 0.00260238
*CONN
*P x I
*I *295:A I *D sky130_fd_sc_hd__clkdlybuf4s25_1
*CAP
1 x 0.000540073
2 *295:A 0.000540073
3 mux *295:A 9.63964e-05
4 q *295:A 0.000758931
5 scan_out *295:A 0.000566594
6 *291:A *295:A 0
7 *292:A *295:A 0.000100313
*RES
1 x *295:A 31.9256 
*END

*D_NET *15 0.000319383
*CONN
*I *258:D I *D sky130_fd_sc_hd__dfxtp_2
*I *220:X O *D sky130_fd_sc_hd__mux2_1
*CAP
1 *258:D 0.000109857
2 *220:X 0.000109857
3 *258:D *220:A1 1.33343e-05
4 *258:D *255:D 1.70581e-05
5 *258:D *258:CLK 5.71472e-05
6 *258:D *85:33 1.21289e-05
*RES
1 *220:X *258:D 20.658 
*END

*D_NET *16 0.000655905
*CONN
*I *240:D I *D sky130_fd_sc_hd__dfxtp_2
*I *222:X O *D sky130_fd_sc_hd__mux2_1
*CAP
1 *240:D 7.08071e-05
2 *222:X 7.08071e-05
3 *240:D *214:A3 8.20939e-05
4 *240:D *237:A1 0.00017514
5 *240:D *46:75 8.03949e-05
6 *240:D *91:10 0.000176663
*RES
1 *222:X *240:D 30.658 
*END

*D_NET *17 0.00191454
*CONN
*I *267:A I *D sky130_fd_sc_hd__dlygate4sd3_1
*I *223:X O *D sky130_fd_sc_hd__mux2_1
*CAP
1 *267:A 0.000421191
2 *223:X 0.000421191
3 *267:A *213:B 9.57311e-05
4 *267:A *214:S0 0.000226867
5 *267:A *224:A1 4.4873e-05
6 *267:A *224:S 9.75173e-05
7 *267:A *241:D 0.000125621
8 *267:A *38:24 0.000269097
9 *267:A *46:81 0.000212448
*RES
1 *223:X *267:A 37.2786 
*END

*D_NET *18 0.00157857
*CONN
*I *271:A I *D sky130_fd_sc_hd__dlygate4sd3_1
*I *224:X O *D sky130_fd_sc_hd__mux2_1
*CAP
1 *271:A 0.000405643
2 *224:X 0.000405643
3 *271:A *219:A1 1.58163e-05
4 *271:A *225:A0 0
5 *271:A *225:A1 0
6 *271:A *241:D 0.000139208
7 *271:A *242:CLK 0.00020256
8 *271:A *242:D 0.000102545
9 *271:A *263:A 9.25014e-06
10 *271:A *277:A 0.000126439
11 *271:A *46:81 5.92441e-05
12 *271:A *50:27 0.000112224
*RES
1 *224:X *271:A 36.6536 
*END

*D_NET *19 0.00147709
*CONN
*I *243:D I *D sky130_fd_sc_hd__dfxtp_2
*I *225:X O *D sky130_fd_sc_hd__mux2_1
*CAP
1 *243:D 0.000346408
2 *225:X 0.000346408
3 *243:D *273:A 8.95221e-05
4 *243:D *279:A 0.000359715
5 *243:D *61:10 0.000176941
6 *243:D *62:10 8.01554e-05
7 *243:D *62:23 7.7939e-05
*RES
1 *225:X *243:D 37.033 
*END

*D_NET *20 0.00104007
*CONN
*I *244:D I *D sky130_fd_sc_hd__dfxtp_2
*I *226:X O *D sky130_fd_sc_hd__mux2_1
*CAP
1 *244:D 0.000140799
2 *226:X 0.000140799
3 *244:D *226:S 5.33005e-05
4 *244:D *227:A1 0.000344641
5 *244:D *268:A 0.000343053
6 *244:D *62:23 1.74816e-05
*RES
1 *226:X *244:D 32.6759 
*END

*D_NET *21 0.00128913
*CONN
*I *265:A I *D sky130_fd_sc_hd__dlygate4sd3_1
*I *227:X O *D sky130_fd_sc_hd__mux2_1
*CAP
1 *265:A 0.000327885
2 *227:X 0.000327885
3 *265:A *268:A 0.000170532
4 *265:A *66:8 0.000317609
5 *265:A *66:22 8.25843e-06
6 *265:A *84:14 0.000136958
*RES
1 *227:X *265:A 34.2607 
*END

*D_NET *22 0.00117824
*CONN
*I *246:D I *D sky130_fd_sc_hd__dfxtp_2
*I *228:X O *D sky130_fd_sc_hd__mux2_1
*CAP
1 *246:D 0.000182444
2 *228:X 0.000182444
3 *246:D *24:12 0.000275298
4 *246:D *66:26 0.000337211
5 *246:D *66:32 0.000200838
*RES
1 *228:X *246:D 34.5687 
*END

*D_NET *23 0.00139491
*CONN
*I *247:D I *D sky130_fd_sc_hd__dfxtp_2
*I *229:X O *D sky130_fd_sc_hd__mux2_1
*CAP
1 *247:D 0.000495255
2 *229:X 0.000495255
3 *247:D *217:A0 0.000171368
4 *247:D *218:A1 7.33819e-05
5 *247:D *38:24 0
6 *247:D *44:33 1.00399e-05
7 *247:D *58:10 0
8 *247:D *61:10 4.26014e-05
9 *247:D *66:46 0.00010096
10 *247:D *72:10 0
11 *259:A *247:D 6.05161e-06
*RES
1 *229:X *247:D 36.8679 
*END

*D_NET *24 0.00741511
*CONN
*I *269:A I *D sky130_fd_sc_hd__dlygate4sd3_1
*I *230:X O *D sky130_fd_sc_hd__mux2_1
*CAP
1 *269:A 0.00116104
2 *230:X 0.000679752
3 *24:12 0.00184079
4 *269:A *287:A 9.48443e-05
5 *269:A *58:26 0.000447719
6 *24:12 *217:A3 7.02611e-05
7 *24:12 *227:A1 3.38136e-05
8 *24:12 *229:A0 0.000659214
9 *24:12 *230:A1 3.91935e-05
10 *24:12 *243:CLK 9.88679e-05
11 *24:12 *248:D 0
12 *24:12 *268:A 0
13 *24:12 *45:81 0.000308594
14 *24:12 *45:90 0.000142675
15 *24:12 *66:8 0.000426969
16 *24:12 *66:16 5.00869e-05
17 *24:12 *66:26 1.41665e-05
18 *24:12 *66:32 7.17333e-05
19 *24:12 *66:46 0.000221634
20 *24:12 *73:12 0.000151628
21 *24:12 *84:14 0.000626832
22 *246:D *24:12 0.000275298
*RES
1 *230:X *24:12 44.0857 
2 *24:12 *269:A 33.6214 
*END

*D_NET *25 0.00431595
*CONN
*I *249:D I *D sky130_fd_sc_hd__dfxtp_2
*I *231:X O *D sky130_fd_sc_hd__mux2_1
*CAP
1 *249:D 0
2 *231:X 0.00111478
3 *25:26 0.00111478
4 *25:26 *235:A0 0.000114255
5 *25:26 *236:A0 7.32955e-05
6 *25:26 *236:S 5.52238e-05
7 *25:26 *251:CLK 5.52302e-05
8 *25:26 *251:D 9.24603e-05
9 *25:26 *252:CLK 0.000127353
10 *25:26 *253:D 0.000229456
11 *25:26 *254:D 0.00010096
12 *25:26 *274:A 0.000356022
13 *25:26 *27:26 0.000182256
14 *25:26 *45:40 0.000115997
15 *25:26 *56:10 5.65955e-05
16 *25:26 *59:14 5.76848e-05
17 *25:26 *67:44 0.00040381
18 *25:26 *81:14 6.57914e-05
*RES
1 *231:X *25:26 41.9964 
2 *25:26 *249:D 9.3 
*END

*D_NET *26 0.00380987
*CONN
*I *250:D I *D sky130_fd_sc_hd__dfxtp_2
*I *232:X O *D sky130_fd_sc_hd__mux2_1
*CAP
1 *250:D 0.000846573
2 *232:X 0.000846573
3 *250:D *213:A 0.000335488
4 *250:D *219:B1 5.49489e-05
5 *250:D *229:A0 3.79197e-05
6 *250:D *230:A0 0.000296776
7 *250:D *252:CLK 1.64343e-05
8 *250:D *252:D 0.000290259
9 *250:D *268:A 0.000148196
10 *250:D *27:26 1.76204e-05
11 *250:D *37:12 0.000133938
12 *250:D *45:14 0
13 *250:D *45:20 0
14 *250:D *58:26 0.000100823
15 *250:D *60:10 0.000146474
16 *250:D *62:10 0.000123379
17 *250:D *66:46 0.000100823
18 *250:D *85:33 0.000313647
*RES
1 *232:X *250:D 49.408 
*END

*D_NET *27 0.0047385
*CONN
*I *284:A I *D sky130_fd_sc_hd__dlygate4sd3_1
*I *233:X O *D sky130_fd_sc_hd__mux2_1
*CAP
1 *284:A 0
2 *233:X 0.00123804
3 *27:26 0.00123804
4 *27:26 *233:A1 8.99422e-05
5 *27:26 *235:A0 0.000174389
6 *27:26 *252:CLK 0.000722096
7 *27:26 *252:D 0.000698557
8 *27:26 *253:D 3.29239e-05
9 *27:26 *45:20 0.00028834
10 *27:26 *66:103 5.62995e-05
11 *250:D *27:26 1.76204e-05
12 *25:26 *27:26 0.000182256
*RES
1 *233:X *27:26 44.6393 
2 *27:26 *284:A 9.3 
*END

*D_NET *28 0.00350655
*CONN
*I *252:D I *D sky130_fd_sc_hd__dfxtp_2
*I *234:X O *D sky130_fd_sc_hd__mux2_1
*CAP
1 *252:D 0.000940036
2 *234:X 0.000940036
3 *252:D *217:S0 0.00011817
4 *252:D *234:A1 0
5 *252:D *37:12 0.000103715
6 *252:D *58:10 0
7 *252:D *58:26 0.000266547
8 *252:D *59:14 5.01193e-05
9 *252:D *66:46 9.91086e-05
10 *250:D *252:D 0.000290259
11 *27:26 *252:D 0.000698557
*RES
1 *234:X *252:D 47.0286 
*END

*D_NET *29 0.000960092
*CONN
*I *253:D I *D sky130_fd_sc_hd__dfxtp_2
*I *235:X O *D sky130_fd_sc_hd__mux2_1
*CAP
1 *253:D 0.000263695
2 *235:X 0.000263695
3 *253:D *233:A1 8.95121e-05
4 *253:D *253:CLK 9.25014e-06
5 *253:D *254:D 0
6 *253:D *67:35 7.15591e-05
7 *25:26 *253:D 0.000229456
8 *27:26 *253:D 3.29239e-05
*RES
1 *235:X *253:D 32.5821 
*END

*D_NET *30 0.000777243
*CONN
*I *254:D I *D sky130_fd_sc_hd__dfxtp_2
*I *236:X O *D sky130_fd_sc_hd__mux2_1
*CAP
1 *254:D 0.000278879
2 *236:X 0.000278879
3 *254:D *215:B1 3.47641e-06
4 *254:D *253:CLK 0
5 *254:D *254:CLK 1.64343e-05
6 *254:D *56:10 5.09156e-05
7 *254:D *56:23 3.12654e-05
8 *254:D *66:103 1.64343e-05
9 *253:D *254:D 0
10 *25:26 *254:D 0.00010096
*RES
1 *236:X *254:D 32.4795 
*END

*D_NET *31 0.00221311
*CONN
*I *255:D I *D sky130_fd_sc_hd__dfxtp_2
*I *237:X O *D sky130_fd_sc_hd__mux2_1
*CAP
1 *255:D 0.000600984
2 *237:X 0.000600984
3 *255:D *220:S 6.43196e-05
4 *255:D *231:A1 0.000336946
5 *255:D *258:CLK 1.39726e-05
6 *255:D *85:33 0.000431851
7 *258:D *255:D 1.70581e-05
8 *290:A *255:D 0.000146991
*RES
1 *237:X *255:D 37.6402 
*END

*D_NET *32 0.000565681
*CONN
*I *275:A I *D sky130_fd_sc_hd__dlygate4sd3_1
*I *238:X O *D sky130_fd_sc_hd__mux2_1
*CAP
1 *275:A 0.000165664
2 *238:X 0.000165664
3 *275:A *238:A0 0.000125555
4 *275:A *238:S 4.53889e-05
5 *275:A *93:14 6.34085e-05
*RES
1 *238:X *275:A 30.6 
*END

*D_NET *33 0.00072295
*CONN
*I *257:D I *D sky130_fd_sc_hd__dfxtp_2
*I *239:X O *D sky130_fd_sc_hd__mux2_1
*CAP
1 *257:D 0.000111463
2 *239:X 0.000111463
3 *257:D *220:A1 0.00012415
4 *257:D *258:CLK 0.000288471
5 *257:D *94:18 8.74024e-05
*RES
1 *239:X *257:D 31.533 
*END

*D_NET *34 0.002308
*CONN
*I *215:A1 I *D sky130_fd_sc_hd__o21a_2
*I *210:Y O *D sky130_fd_sc_hd__inv_2
*CAP
1 *215:A1 0.000757964
2 *210:Y 0.000757964
3 *215:A1 *215:B1 6.45791e-05
4 *215:A1 *218:A0 1.08359e-05
5 *215:A1 *231:A1 5.23735e-05
6 *215:A1 *232:A0 1.39867e-05
7 *215:A1 *254:CLK 0.000127339
8 *215:A1 *56:40 0.000304438
9 *215:A1 *66:57 0
10 *215:A1 *67:31 6.33743e-05
11 *215:A1 *67:35 0.000155149
*RES
1 *210:Y *215:A1 40.7786 
*END

*D_NET *35 0.00194009
*CONN
*I *219:B2 I *D sky130_fd_sc_hd__a22o_2
*I *211:Y O *D sky130_fd_sc_hd__inv_2
*CAP
1 *219:B2 0.000350455
2 *211:Y 0.000350455
3 *219:B2 *223:A0 0.000221065
4 *219:B2 *223:A1 0.000107686
5 *219:B2 *266:A 0.000402788
6 *219:B2 *270:A 0.00012501
7 *219:B2 *51:8 0.000284501
8 *219:B2 *52:10 9.8126e-05
*RES
1 *211:Y *219:B2 36.2786 
*END

*D_NET *36 0.00310394
*CONN
*I *213:B I *D sky130_fd_sc_hd__or2_2
*I *212:X O *D sky130_fd_sc_hd__mux4_2
*CAP
1 *213:B 0.000587672
2 *212:X 0.000587672
3 *213:B *213:A 0.000230475
4 *213:B *218:A0 0.000230155
5 *213:B *247:CLK 0.000264703
6 *213:B *38:24 0.000559987
7 *213:B *39:36 0.00012384
8 *213:B *46:81 0.00012249
9 *213:B *85:33 0.00030121
10 *267:A *213:B 9.57311e-05
*RES
1 *212:X *213:B 42.0464 
*END

*D_NET *37 0.00692813
*CONN
*I *219:A1 I *D sky130_fd_sc_hd__a22o_2
*I *213:X O *D sky130_fd_sc_hd__or2_2
*CAP
1 *219:A1 0.00133449
2 *213:X 0.000479522
3 *37:12 0.00181401
4 *219:A1 *263:A 7.95804e-05
5 *219:A1 *39:36 9.49532e-05
6 *219:A1 *84:14 0.00081832
7 *37:12 *217:S0 0.0005266
8 *37:12 *58:26 0.00104951
9 *37:12 *62:10 0.000139907
10 *37:12 *63:10 0.00033777
11 *250:D *37:12 0.000133938
12 *252:D *37:12 0.000103715
13 *271:A *219:A1 1.58163e-05
*RES
1 *213:X *37:12 35.8893 
2 *37:12 *219:A1 26.4786 
*END

*D_NET *38 0.00312846
*CONN
*I *215:A2 I *D sky130_fd_sc_hd__o21a_2
*I *214:X O *D sky130_fd_sc_hd__mux4_2
*CAP
1 *215:A2 0
2 *214:X 0.000790061
3 *38:24 0.000790061
4 *38:24 *214:S0 6.92801e-05
5 *38:24 *215:B1 3.67252e-05
6 *38:24 *216:A2 9.71756e-05
7 *38:24 *225:S 0.000154545
8 *38:24 *241:D 0.000287136
9 *38:24 *39:36 2.06112e-05
10 *38:24 *46:79 1.24368e-05
11 *38:24 *46:81 2.07809e-05
12 *38:24 *66:57 2.05595e-05
13 *213:B *38:24 0.000559987
14 *247:D *38:24 0
15 *267:A *38:24 0.000269097
*RES
1 *214:X *38:24 46.5321 
2 *38:24 *215:A2 9.3 
*END

*D_NET *39 0.00599488
*CONN
*I *219:A2 I *D sky130_fd_sc_hd__a22o_2
*I *215:X O *D sky130_fd_sc_hd__o21a_2
*CAP
1 *219:A2 0
2 *215:X 0.00249792
3 *39:36 0.00249792
4 *39:36 *214:A1 5.22522e-05
5 *39:36 *216:A2 2.06112e-05
6 *39:36 *224:A0 0.000283181
7 *39:36 *225:A0 0.000279597
8 *39:36 *283:A 2.98296e-05
9 *39:36 *67:10 9.41642e-05
10 *213:B *39:36 0.00012384
11 *219:A1 *39:36 9.49532e-05
12 *38:24 *39:36 2.06112e-05
*RES
1 *215:X *39:36 45.1831 
2 *39:36 *219:A2 9.3 
*END

*D_NET *40 0.00193744
*CONN
*I *218:A0 I *D sky130_fd_sc_hd__mux2_1
*I *216:X O *D sky130_fd_sc_hd__mux4_2
*CAP
1 *218:A0 0.000413769
2 *216:X 0.000413769
3 *218:A0 *215:B1 0.000170654
4 *218:A0 *216:A1 2.14658e-05
5 *218:A0 *232:A1 0.000267973
6 *218:A0 *237:S 1.24368e-05
7 *218:A0 *56:40 0.000199268
8 *218:A0 *85:33 0.000197117
9 *213:B *218:A0 0.000230155
10 *215:A1 *218:A0 1.08359e-05
*RES
1 *216:X *218:A0 37.9214 
*END

*D_NET *41 0.000166234
*CONN
*I *218:A1 I *D sky130_fd_sc_hd__mux2_1
*I *217:X O *D sky130_fd_sc_hd__mux4_2
*CAP
1 *218:A1 4.64259e-05
2 *217:X 4.64259e-05
3 *247:D *218:A1 7.33819e-05
*RES
1 *217:X *218:A1 28.6357 
*END

*D_NET *42 0.00435216
*CONN
*I *219:B1 I *D sky130_fd_sc_hd__a22o_2
*I *218:X O *D sky130_fd_sc_hd__mux2_1
*CAP
1 *219:B1 0.000861278
2 *218:X 0.000861278
3 *219:B1 *231:A1 8.19254e-05
4 *219:B1 *237:A1 3.43051e-05
5 *219:B1 *266:A 0.000389482
6 *219:B1 *52:10 0.000282701
7 *219:B1 *67:31 0.000362269
8 *219:B1 *85:33 0.000581285
9 *219:B1 *91:10 0.000842685
10 *250:D *219:B1 5.49489e-05
*RES
1 *218:X *219:B1 48.1893 
*END

*D_NET *43 0.00452419
*CONN
*I *221:A0 I *D sky130_fd_sc_hd__mux2_1
*I *220:A0 I *D sky130_fd_sc_hd__mux2_1
*I *219:X O *D sky130_fd_sc_hd__a22o_2
*CAP
1 *221:A0 0.000341323
2 *220:A0 0.000452137
3 *219:X 0.000134849
4 *43:8 0.000928309
5 *220:A0 *223:A0 5.92441e-05
6 *220:A0 *232:A1 4.46186e-06
7 *220:A0 *237:A0 9.90431e-05
8 *220:A0 *237:A1 0.000703226
9 *220:A0 *255:CLK 5.74242e-05
10 *220:A0 *46:10 2.03801e-05
11 *220:A0 *46:23 8.04839e-05
12 *220:A0 *46:60 8.77704e-05
13 *220:A0 *46:75 3.61589e-06
14 *221:A0 *214:A3 0.000191423
15 *221:A0 *220:A1 0.000477576
16 *221:A0 *221:A1 5.50052e-05
17 *221:A0 *272:A 2.11336e-05
18 *221:A0 *298:A 3.4689e-05
19 *221:A0 *46:75 9.58632e-05
20 *43:8 *223:A0 0.000144835
21 *43:8 *237:A1 0.000457434
22 *43:8 *70:10 7.39637e-05
*RES
1 *219:X *43:8 19.6929 
2 *43:8 *220:A0 24.8893 
3 *43:8 *221:A0 21.9964 
*END

*D_NET *44 0.00294263
*CONN
*I *261:A I *D sky130_fd_sc_hd__clkbuf_16
*I *260:A I *D sky130_fd_sc_hd__clkbuf_16
*I *259:X O *D sky130_fd_sc_hd__clkbuf_16
*CAP
1 *261:A 0.000339171
2 *260:A 8.88548e-05
3 *259:X 2.67043e-05
4 *44:49 0.000455964
5 *44:44 0.000116793
6 *44:33 0.000619225
7 *44:8 0.000581012
8 *44:6 7.73455e-05
9 *260:A *214:S1 9.73049e-05
10 *261:A *214:S1 1.29975e-05
11 *261:A *52:10 1.90303e-05
12 *44:6 *232:A0 1.29975e-05
13 *44:8 *232:A0 2.58366e-05
14 *44:33 *214:S1 1.23691e-05
15 *44:33 *225:A1 2.85234e-05
16 *44:33 *225:S 0.000139472
17 *44:33 *232:A0 2.83403e-05
18 *44:33 *247:CLK 8.81327e-05
19 *44:33 *61:10 1.00689e-05
20 *44:49 *215:B1 9.95963e-05
21 *44:49 *225:A0 1.6271e-05
22 *44:49 *232:A0 0
23 *247:D *44:33 1.00399e-05
24 *10:18 *44:33 3.65826e-05
*RES
1 *259:X *44:6 9.83571 
2 *44:6 *44:8 0.995536 
3 *44:8 *44:33 18.9286 
4 *44:33 *260:A 11.108 
5 *44:6 *44:44 4.5 
6 *44:44 *44:49 2.55357 
7 *44:49 *261:A 18.5679 
*END

*D_NET *45 0.0079078
*CONN
*I *243:CLK I *D sky130_fd_sc_hd__dfxtp_2
*I *245:CLK I *D sky130_fd_sc_hd__dfxtp_2
*I *244:CLK I *D sky130_fd_sc_hd__dfxtp_2
*I *246:CLK I *D sky130_fd_sc_hd__dfxtp_2
*I *248:CLK I *D sky130_fd_sc_hd__dfxtp_2
*I *251:CLK I *D sky130_fd_sc_hd__dfxtp_2
*I *249:CLK I *D sky130_fd_sc_hd__dfxtp_2
*I *250:CLK I *D sky130_fd_sc_hd__dfxtp_2
*I *252:CLK I *D sky130_fd_sc_hd__dfxtp_2
*I *260:X O *D sky130_fd_sc_hd__clkbuf_16
*CAP
1 *243:CLK 0.000329065
2 *245:CLK 0.000363477
3 *244:CLK 0
4 *246:CLK 3.72704e-05
5 *248:CLK 3.72884e-05
6 *251:CLK 2.10759e-05
7 *249:CLK 0
8 *250:CLK 0
9 *252:CLK 0.000168582
10 *260:X 0.000484422
11 *45:90 0.000739012
12 *45:81 0.000225969
13 *45:40 0.000379386
14 *45:20 0.000439636
15 *45:14 0.000744859
16 *45:12 0.000354977
17 *45:10 0.000544387
18 *243:CLK *227:A1 5.7616e-05
19 *243:CLK *48:8 4.87854e-05
20 *245:CLK *245:D 3.32132e-06
21 *252:CLK *251:D 0.000163757
22 *45:10 *248:D 0.000188194
23 *45:12 *248:D 0.000213802
24 *45:14 *229:A0 0
25 *45:14 *248:D 4.46186e-06
26 *45:20 *251:D 3.18676e-05
27 *45:40 *59:14 0.000150886
28 *45:81 *227:A1 1.6815e-05
29 *45:81 *228:A0 7.74068e-05
30 *45:81 *229:A0 0.000124749
31 *45:90 *227:A1 8.11424e-05
32 *250:D *252:CLK 1.64343e-05
33 *250:D *45:14 0
34 *250:D *45:20 0
35 *10:18 *45:10 0
36 *24:12 *243:CLK 9.88679e-05
37 *24:12 *45:81 0.000308594
38 *24:12 *45:90 0.000142675
39 *25:26 *251:CLK 5.52302e-05
40 *25:26 *252:CLK 0.000127353
41 *25:26 *45:40 0.000115997
42 *27:26 *252:CLK 0.000722096
43 *27:26 *45:20 0.00028834
*RES
1 *260:X *45:10 19.8357 
2 *45:10 *45:12 4.98214 
3 *45:12 *45:14 1.94643 
4 *45:14 *45:20 10.3571 
5 *45:20 *252:CLK 17.2464 
6 *45:20 *250:CLK 9.3 
7 *45:14 *45:40 11.2143 
8 *45:40 *249:CLK 9.3 
9 *45:40 *251:CLK 9.83571 
10 *45:12 *248:CLK 14.3357 
11 *45:10 *246:CLK 14.3357 
12 *260:X *45:81 18.4071 
13 *45:81 *244:CLK 13.8 
14 *45:81 *45:90 1.94643 
15 *45:90 *245:CLK 17.9429 
16 *45:90 *243:CLK 19.5143 
*END

*D_NET *46 0.0105034
*CONN
*I *240:CLK I *D sky130_fd_sc_hd__dfxtp_2
*I *242:CLK I *D sky130_fd_sc_hd__dfxtp_2
*I *241:CLK I *D sky130_fd_sc_hd__dfxtp_2
*I *247:CLK I *D sky130_fd_sc_hd__dfxtp_2
*I *257:CLK I *D sky130_fd_sc_hd__dfxtp_2
*I *256:CLK I *D sky130_fd_sc_hd__dfxtp_2
*I *253:CLK I *D sky130_fd_sc_hd__dfxtp_2
*I *254:CLK I *D sky130_fd_sc_hd__dfxtp_2
*I *255:CLK I *D sky130_fd_sc_hd__dfxtp_2
*I *261:X O *D sky130_fd_sc_hd__clkbuf_16
*CAP
1 *240:CLK 0
2 *242:CLK 0.000140524
3 *241:CLK 5.93939e-05
4 *247:CLK 0.000330357
5 *257:CLK 3.04135e-05
6 *256:CLK 0.000442905
7 *253:CLK 0.000106736
8 *254:CLK 9.58251e-05
9 *255:CLK 7.19542e-05
10 *261:X 0.000392654
11 *46:81 0.00059948
12 *46:79 0.000750974
13 *46:75 0.000597575
14 *46:60 0.000316948
15 *46:29 0.000484032
16 *46:23 0.000948557
17 *46:10 0.000333301
18 *46:8 0.000519499
19 *241:CLK *214:S1 6.81786e-05
20 *241:CLK *225:A0 4.18217e-05
21 *242:CLK *225:A1 0
22 *242:CLK *50:6 2.84026e-05
23 *247:CLK *225:S 7.24888e-05
24 *253:CLK *67:35 0.000170241
25 *254:CLK *215:B1 5.33005e-05
26 *254:CLK *66:103 0.000155522
27 *256:CLK *237:A0 3.32737e-05
28 *256:CLK *256:D 2.76145e-05
29 *257:CLK *94:18 5.33005e-05
30 *46:10 *93:14 7.58841e-05
31 *46:23 *216:A1 3.79104e-05
32 *46:23 *93:14 0.000464207
33 *46:29 *216:A1 5.10375e-05
34 *46:29 *238:S 3.23658e-05
35 *46:29 *66:103 3.97677e-05
36 *46:29 *89:8 0.000114577
37 *46:29 *93:14 5.84171e-05
38 *46:60 *93:14 0.000269359
39 *46:75 *214:A3 3.71434e-05
40 *46:75 *223:A0 0.000144732
41 *46:75 *93:14 0.000169233
42 *46:79 *214:A0 4.87649e-05
43 *46:79 *214:A2 9.41642e-05
44 *46:79 *214:A3 0.000149463
45 *46:79 *214:S0 0.000132612
46 *46:79 *224:A1 9.16877e-05
47 *213:B *247:CLK 0.000264703
48 *213:B *46:81 0.00012249
49 *215:A1 *254:CLK 0.000127339
50 *220:A0 *255:CLK 5.74242e-05
51 *220:A0 *46:10 2.03801e-05
52 *220:A0 *46:23 8.04839e-05
53 *220:A0 *46:60 8.77704e-05
54 *220:A0 *46:75 3.61589e-06
55 *221:A0 *46:75 9.58632e-05
56 *240:D *46:75 8.03949e-05
57 *253:D *253:CLK 9.25014e-06
58 *254:D *253:CLK 0
59 *254:D *254:CLK 1.64343e-05
60 *259:A *247:CLK 5.09021e-06
61 *267:A *46:81 0.000212448
62 *271:A *242:CLK 0.00020256
63 *271:A *46:81 5.92441e-05
64 *38:24 *46:79 1.24368e-05
65 *38:24 *46:81 2.07809e-05
66 *44:33 *247:CLK 8.81327e-05
*RES
1 *261:X *46:8 18.0321 
2 *46:8 *46:10 1.03571 
3 *46:10 *255:CLK 15.4786 
4 *46:10 *46:23 6.5 
5 *46:23 *46:29 10.2679 
6 *46:29 *254:CLK 12.7107 
7 *46:29 *253:CLK 20.55 
8 *46:23 *256:CLK 19.175 
9 *46:8 *46:60 3.46429 
10 *46:60 *257:CLK 14.3357 
11 *46:60 *46:75 9.33929 
12 *46:75 *46:79 12.0179 
13 *46:79 *46:81 4.67857 
14 *46:81 *247:CLK 20.175 
15 *46:81 *241:CLK 15.1571 
16 *46:79 *242:CLK 17.1929 
17 *46:75 *240:CLK 9.3 
*END

*D_NET *47 0.00391912
*CONN
*I *216:A0 I *D sky130_fd_sc_hd__mux4_2
*I *274:A I *D sky130_fd_sc_hd__dlygate4sd3_1
*I *256:Q O *D sky130_fd_sc_hd__dfxtp_2
*CAP
1 *216:A0 0.000253107
2 *274:A 0.00103056
3 *256:Q 0.00128367
4 *216:A0 *216:A1 0.000350136
5 *274:A *216:A1 0.000208367
6 *274:A *231:A0 2.57487e-05
7 *274:A *231:S 7.3237e-05
8 *274:A *232:A1 0.000103267
9 *274:A *233:A0 0.000170511
10 *274:A *238:S 0
11 *274:A *66:103 2.47186e-05
12 *274:A *67:35 0
13 *274:A *79:10 3.97657e-05
14 *25:26 *274:A 0.000356022
*RES
1 *256:Q *274:A 43.7964 
2 *256:Q *216:A0 22.0107 
*END

*D_NET *48 0.00280604
*CONN
*I *264:A I *D sky130_fd_sc_hd__dlygate4sd3_1
*I *212:A2 I *D sky130_fd_sc_hd__mux4_2
*I *245:Q O *D sky130_fd_sc_hd__dfxtp_2
*CAP
1 *264:A 0.000185217
2 *212:A2 0.000194255
3 *245:Q 0.000120308
4 *48:8 0.00049978
5 *212:A2 *287:A 0.000388749
6 *212:A2 *92:14 0.000391171
7 *264:A *287:A 0.000463903
8 *264:A *63:10 1.41029e-05
9 *264:A *92:14 0.000499769
10 *243:CLK *48:8 4.87854e-05
*RES
1 *245:Q *48:8 15.1571 
2 *48:8 *212:A2 19.7286 
3 *48:8 *264:A 20.3 
*END

*D_NET *49 0.00170577
*CONN
*I *273:A I *D sky130_fd_sc_hd__dlygate4sd3_1
*I *212:A3 I *D sky130_fd_sc_hd__mux4_2
*I *244:Q O *D sky130_fd_sc_hd__dfxtp_2
*CAP
1 *273:A 0.000349236
2 *212:A3 0.000177279
3 *244:Q 0
4 *49:6 0.000526515
5 *212:A3 *62:23 0.000101777
6 *212:A3 *72:10 5.09999e-05
7 *273:A *263:A 5.03772e-05
8 *273:A *279:A 0
9 *273:A *62:23 3.2923e-05
10 *273:A *72:10 0.000327143
11 *273:A *78:10 0
12 *243:D *273:A 8.95221e-05
*RES
1 *244:Q *49:6 13.8 
2 *49:6 *212:A3 16.9071 
3 *49:6 *273:A 22.7643 
*END

*D_NET *50 0.0033097
*CONN
*I *224:A1 I *D sky130_fd_sc_hd__mux2_1
*I *214:A0 I *D sky130_fd_sc_hd__mux4_2
*I *277:A I *D sky130_fd_sc_hd__dlygate4sd3_1
*I *243:Q O *D sky130_fd_sc_hd__dfxtp_2
*CAP
1 *224:A1 0.000262608
2 *214:A0 7.88479e-05
3 *277:A 0.00023826
4 *243:Q 0.000114073
5 *50:27 0.000657799
6 *50:6 0.000668676
7 *224:A1 *214:S1 2.37944e-05
8 *224:A1 *224:A0 0.000162992
9 *224:A1 *224:S 9.75173e-05
10 *224:A1 *225:A0 0.000121842
11 *224:A1 *241:D 1.24368e-05
12 *277:A *225:A0 0.000139637
13 *277:A *225:A1 0
14 *277:A *263:A 0.000146885
15 *277:A *78:10 0
16 *50:27 *214:A1 1.12456e-05
17 *50:27 *225:A0 9.00919e-05
18 *50:27 *242:D 3.05985e-05
19 *242:CLK *50:6 2.84026e-05
20 *267:A *224:A1 4.4873e-05
21 *271:A *277:A 0.000126439
22 *271:A *50:27 0.000112224
23 *46:79 *214:A0 4.87649e-05
24 *46:79 *224:A1 9.16877e-05
*RES
1 *243:Q *50:6 10.6571 
2 *50:6 *277:A 23.7286 
3 *50:6 *50:27 14.8393 
4 *50:27 *214:A0 10.2464 
5 *50:27 *224:A1 23.9071 
*END

*D_NET *51 0.00266665
*CONN
*I *270:A I *D sky130_fd_sc_hd__dlygate4sd3_1
*I *214:A1 I *D sky130_fd_sc_hd__mux4_2
*I *223:A1 I *D sky130_fd_sc_hd__mux2_1
*I *242:Q O *D sky130_fd_sc_hd__dfxtp_2
*CAP
1 *270:A 0.000139478
2 *214:A1 0.000305281
3 *223:A1 9.40531e-05
4 *242:Q 0
5 *51:8 0.000470231
6 *51:6 0.000210375
7 *214:A1 *225:A0 2.06112e-05
8 *223:A1 *223:A0 5.50052e-05