*SPEF "IEEE 1481-1998"
*DESIGN "clb"
*DATE "Tue Apr  7 14:59:13 2026"
*VENDOR "Cadence Design Systems, Inc."
*PROGRAM "Innovus"
*VERSION "22.11-s119_1"
*DESIGN_FLOW "COUPLING C" "PIN_CAP NONE" "NAME_SCOPE LOCAL"
*DIVIDER /
*DELIMITER :
*BUS_DELIMITER []
*T_UNIT 1 NS
*C_UNIT 1 PF
*R_UNIT 1 OHM
*L_UNIT 1 HENRY

// MMMC spef file for corner 'ff_n40C_1v95.hold_rc'

*NAME_MAP

*1 FE_OFN2_mux
*2 FE_OFN1_scan_out_0
*3 FE_OFN0_q
*4 clk
*5 addr[3]
*6 addr[2]
*7 addr[1]
*8 addr[0]
*9 x
*10 mux
*11 q
*12 scan_clk
*13 scan_en
*14 scan_in[0]
*15 scan_out[0]
*16 mem[15]
*17 mem[14]
*18 mem[13]
*19 mem[12]
*20 mem[11]
*21 mem[10]
*22 mem[9]
*23 mem[8]
*24 mem[7]
*25 mem[6]
*26 mem[5]
*27 mem[4]
*28 mem[3]
*29 mem[2]
*30 mem[1]
*31 mem[0]
*32 CLKGATE_rc_gclk
*33 UNCONNECTED
*34 logic_0_1_net
*35 n_2
*36 n_3
*37 n_4
*38 n_5
*39 n_6
*40 n_7
*41 n_8
*42 n_9
*43 n_10
*44 n_11
*45 n_12
*46 n_13
*47 n_14
*48 n_15
*49 n_16
*50 n_17
*51 n_18
*52 n_19
*53 n_20
*54 q_control
*55 FE_OFC2_mux
*56 FE_OFC1_scan_out_0
*57 FE_OFC0_q
*58 CLKGATE_RC_CG_HIER_INST0/RC_CGIC_INST
*59 q_reg_reg
*60 g475__2398
*61 g476__5107
*62 g477__6260
*63 g478__4319
*64 g479__8428
*65 g480__5526
*66 g481__6783
*67 mem_reg\[15\]
*68 mem_reg\[14\]
*69 g484__3680
*70 mem_reg\[13\]
*71 g486__1617
*72 mem_reg\[12\]
*73 g488__2802
*74 mem_reg\[11\]
*75 g490__1705
*76 mem_reg\[10\]
*77 mem_reg\[9\]
*78 g493__5122
*79 g494__8246
*80 mem_reg\[8\]
*81 g496__7098
*82 mem_reg\[7\]
*83 mem_reg\[6\]
*84 g499__6131
*85 mem_reg\[5\]
*86 g501__1881
*87 mem_reg\[4\]
*88 g503__5115
*89 mem_reg\[3\]
*90 mem_reg\[2\]
*91 mem_reg\[1\]
*92 mem_reg\[0\]
*93 g508__7482
*94 g509__4733
*95 g510__6161
*96 mux_control_reg
*97 q_control_reg
*98 tie_0_cell


*PORTS

*4 I *C 28.52 0
*5 I *C 25.76 0
*6 I *C 23 0
*7 I *C 8.51 0
*8 I *C 5.75 0
*9 I *C 2.3 0
*10 O *C 27.83 0
*11 O *C 24.38 0
*12 I *C 16.1 0
*13 I *C 7.13 0
*14 I *C 4.37 0
*15 O *C 1.61 0


*D_NET *1 0.00476219

*CONN
*I *60:X O *C 1.15 4.59 *L 0 *D sky130_fd_sc_hd__mux2_2
*I *55:A I *C 20.01 1.53 *L 0.00685 *D sky130_fd_sc_hd__buf_8

*CAP
1 *60:X 1.78613e-05
2 *55:A 1.78613e-05
3 *1:2 0.00073278
4 *1:3 0.000758173
5 *1:4 0.000203006
6 *1:5 0.000198373
7 *1:6 0.000389935
8 *1:7 0.000389935
9 *1:8 0.000818719
10 *1:9 0.00012432
11 *1:10 0.00082958
12 *1:11 7.13944e-05
13 *1:12 0.000145802
14 *1:13 6.44575e-05

*RES
1 *1:13 *55:A 4.00001
2 *1:11 *1:13 0.410708
3 *1:5 *1:11 4.00001
4 *1:5 *1:4 2.73219
5 *1:12 *1:4 4.00001
6 *1:9 *1:12 0.821416
7 *1:9 *1:10 0.30353
8 *1:8 *1:10 6.98214293
9 *1:7 *1:8 0.151818
10 *1:6 *1:7 3.28566
11 *1:6 *1:2 0.151818
12 *1:3 *1:2 5.33931
13 *60:X *1:3 4.00001
*END

*D_NET *2 0.00408946

*CONN
*I *96:Q O *C 15.69 6.798 *L 0 *D sky130_fd_sc_hd__edfxtp_1
*I *60:S I *C 3.91 3.57 *L 0.00315 *D sky130_fd_sc_hd__mux2_2
*I *56:A I *C 12.65 9.35 *L 0.00685 *D sky130_fd_sc_hd__buf_8

*CAP
1 *96:Q 1.78617e-05
2 *60:S 1.78617e-05
3 *56:A 1.78617e-05
4 *2:3 0.0010749
5 *2:4 0.000921985
6 *2:5 0.000235696
7 *2:6 0.000235696
8 *2:7 8.10419e-05
9 *2:8 8.79799e-05
10 *2:9 0.000136726
11 *2:10 0.000132101
12 *2:11 6.78876e-05
13 *2:12 0.000213848
14 *2:5 *34:2 0.00020784
15 *2:6 *34:3 0.00020784
16 *2:5 *34:12 9.54e-06
17 *2:6 *34:11 9.54000124e-06
18 *2:10 *13:8 1.97e-05
19 *2:9 *13:9 1.97e-05
20 *2:10 *13:9 7.268e-05
21 *2:9 *13:10 7.268e-05
22 *2:10 *13:10 4.619e-05
23 *2:9 *13:11 4.619e-05
24 *2:3 *13:12 2.934e-05
25 *2:4 *13:13 2.934e-05
26 *2:3 *13:14 3.871e-05
27 *2:4 *13:15 3.87099945e-05

*RES
1 *2:11 *56:A 3.99998
2 *2:5 *2:11 3.99998
3 *2:6 *2:5 3.03574
4 *2:12 *96:Q 3.99998
5 *2:3 *2:6 3.99998
6 *2:3 *2:12 1.84826
7 *2:4 *2:3 8.21428585
8 *2:10 *2:4 3.99998
9 *2:9 *2:10 1.82144
10 *2:8 *2:9 3.99998
11 *2:7 *2:8 0.410739
12 *60:S *2:7 3.99998
*END

*D_NET *3 0.00352748

*CONN
*I *59:Q O *C 28.75 3.23 *L 0 *D sky130_fd_sc_hd__dfxtp_1
*I *57:A I *C 14.03 12.41 *L 0.00685 *D sky130_fd_sc_hd__buf_8

*CAP
1 *59:Q 1.78527e-05
2 *57:A 1.78527e-05
3 *3:2 0.00039216
4 *3:3 0.00041755
5 *3:4 0.00019652
6 *3:5 0.00017789
7 *3:6 0.0001204
8 *3:7 0.00013903
9 *3:8 0.000102261
10 *3:9 0.00011127
11 *3:10 0.000102261
12 *3:11 0.00013552
13 *3:12 0.000143599
14 *3:13 0.00018421
15 *3:14 0.00018421
16 *3:15 0.000128581
17 *3:10 *28:12 0.00018746
18 *3:8 *28:13 0.00018746
19 *3:12 *28:12 5.162e-05
20 *3:9 *28:13 5.16200016e-05
21 *3:2 *24:16 5.162e-05
22 *3:3 *24:15 5.162e-05
23 *3:2 *24:5 0.00018746
24 *3:3 *24:6 0.000187459998

*RES
1 *3:15 *59:Q 3.99995
2 *3:11 *3:15 0.821429
3 *3:7 *3:11 3.99995
4 *3:7 *3:6 1.51782
5 *3:6 *3:13 0.410714
6 *3:13 *3:14 2.73211
7 *3:5 *3:14 0.410714
8 *3:5 *3:4 2.42859
9 *3:12 *3:4 3.99995
10 *3:9 *3:12 2.46429
11 *3:9 *3:10 0.151812
12 *3:8 *3:10 2.46429
13 *3:2 *3:8 0.151812
14 *3:3 *3:2 6.57142878
15 *57:A *3:3 3.99995
*END

*D_NET *4 0.00183446

*CONN
*P *4 I *C 28.52 0 *L 0
*I *59:CLK I *C 21.85 3.91 *L 0.00166 *D sky130_fd_sc_hd__dfxtp_1

*CAP
1 *4 0.000248159
2 *59:CLK 1.78473e-05
3 *4:2 0.00041952
4 *4:3 0.000416831
5 *4:4 4.42021e-05
6 *4:5 5.11413e-05
7 *4:6 0.000299
8 *4:7 8.50115e-05
9 *4:8 8.29886e-05
10 *4:9 8.39104e-05
11 *4:10 8.585e-05

*RES
1 *4 *4:6 0.441772
2 *4:10 *4:6 0.108093
3 *4:2 *4:10 4
4 *4:3 *4:2 0.792725
5 *4:5 *4:3 4
6 *4:5 *4:4 0.00891113
7 *4:8 *4:4 4
8 *4:8 *4:9 0.491089
9 *4:7 *4:9 0.709839
10 *59:CLK *4:7 4
*END

*D_NET *5 0.00700943

*CONN
*P *5 I *C 25.76 0 *L 0
*I *62:S I *C 4.37 14.45 *L 0.00467 *D sky130_fd_sc_hd__mux2i_1

*CAP
1 *5 0.000473006
2 *62:S 1.78471e-05
3 *5:2 0.000448643
4 *5:3 0.000455579
5 *5:4 7.44267e-05
6 *5:5 8.1363e-05
7 *5:6 0.000693898
8 *5:7 0.000701789
9 *5:8 0.00125226
10 *5:9 0.00124165
11 *5:10 0.000508012
12 *5:2 *19:7 2.309e-05
13 *5:3 *19:6 2.309e-05
14 *5:2 *19:6 0.0003233
15 *5:3 *19:4 0.0003233
16 *5:4 *19:11 6.249e-05
17 *5:5 *19:5 6.24900247e-05
18 *5:2 *15:2 0.00012158
19 *5:3 *15:3 0.00012158

*RES
1 *5 *5:10 0.919638
2 *5:6 *5:10 4.00002
3 *5:4 *62:S 4.00002
4 *5:7 *5:6 1.26121
5 *5:5 *5:4 0.821455
6 *5:7 *5:8 0.0956044
7 *5:2 *5:5 4.00002
8 *5:9 *5:8 2.23407
9 *5:3 *5:2 6.75892878
10 *5:3 *5:9 4.00002
*END

*D_NET *6 0.00904399

*CONN
*P *6 I *C 23 0 *L 0
*I *95:B_N I *C 16.79 19.89 *L 0.00142 *D sky130_fd_sc_hd__nor2b_1
*I *94:B I *C 3.45 20.23 *L 0.00235 *D sky130_fd_sc_hd__nor2_1
*I *93:A I *C 16.33 22.95 *L 0.00153 *D sky130_fd_sc_hd__and2_0
*I *84:A I *C 2.99 20.23 *L 0.00238 *D sky130_fd_sc_hd__nor2_1
*I *69:A I *C 4.37 23.29 *L 0.00238 *D sky130_fd_sc_hd__nor2_1

*CAP
1 *6 0.000600882
2 *95:B_N 1.78466e-05
3 *94:B 1.78466e-05
4 *93:A 1.78466e-05
5 *84:A 1.78466e-05
6 *69:A 1.78466e-05
7 *6:6 8.86996e-05
8 *6:7 0.000106048
9 *6:8 8.50141e-05
10 *6:9 8.79767e-05
11 *6:10 9.44944e-05
12 *6:11 7.30216e-05
13 *6:12 0.00011176
14 *6:13 0.000118693
15 *6:14 0.00024318
16 *6:15 0.00025522
17 *6:16 0.000487771
18 *6:17 0.000485081
19 *6:18 0.000738559
20 *6:19 0.000738559
21 *6:20 0.000146067
22 *6:21 0.000156661
23 *6:22 0.000156661
24 *6:23 0.000146067
25 *6:24 9.14488e-05
26 *6:25 0.000110374
27 *6:26 8.45046e-05
28 *6:27 6.27829e-05
29 *6:28 0.000702569
30 *6:30 7.68611e-05
31 *6:31 0.000107245
32 *6:32 6.78786e-05
33 *6:33 7.78328e-05
34 *6:34 6.78786e-05
35 *6:35 0.000248975
36 *6:36 0.000182293
37 *6:37 0.00077661
38 *6:38 0.00077661
39 *6:14 *23:8 0.00018475
40 *6:15 *23:9 0.000184750005
41 *6:6 *46:5 0.00011547
42 *6:7 *46:3 0.00011547

*RES
1 *6:26 *84:A 4
2 *6:25 *94:B 4
3 *6:26 *6:25 0.410706
4 *6:25 *6:24 0.410706
5 *6:7 *6:24 4
6 *6:7 *6:6 1.51788
7 *6:32 *69:A 4
8 *6:6 *6:30 0.410706
9 *6:33 *6:32 4
10 *6:30 *6:31 0.723206
11 *6:31 *6:33 0.491089
12 *6:23 *6:31 4
13 *6:23 *6:22 0.216187
14 *6:22 *6:19 0.0955811
15 *6:19 *6:18 1.44135
16 *6:21 *6:18 0.0955811
17 *6:21 *6:20 0.216187
18 *6 *6:28 1.20636
19 *6:34 *93:A 4
20 *6:27 *6:20 4
21 *6:28 *6:37 0.216187
22 *6:14 *6:34 4
23 *6:14 *6:27 0.116089
24 *6:37 *6:38 1.43347
25 *6:15 *6:14 2.42859
26 *6:35 *6:38 0.216187
27 *6:9 *6:15 4
28 *6:35 *6:36 0.286682
29 *6:8 *95:B_N 4
30 *6:9 *6:8 0.410706
31 *6:16 *6:36 4
32 *6:11 *6:8 0.303589
33 *6:17 *6:16 0.900818
34 *6:11 *6:10 0.410706
35 *6:13 *6:17 4
36 *6:12 *6:10 4
37 *6:13 *6:12 0.419617
38 *6:29 *6:12 0.598022
*END

*D_NET *7 0.01033

*CONN
*P *7 I *C 8.51 0 *L 0
*I *95:A I *C 17.71 20.23 *L 0.00237 *D sky130_fd_sc_hd__nor2b_1
*I *93:B I *C 17.25 23.29 *L 0.00156 *D sky130_fd_sc_hd__and2_0
*I *88:S I *C 17.25 15.13 *L 0.00326 *D sky130_fd_sc_hd__mux2_1
*I *86:S I *C 4.37 18.19 *L 0.00467 *D sky130_fd_sc_hd__mux2i_1
*I *73:S I *C 15.41 20.57 *L 0.00326 *D sky130_fd_sc_hd__mux2_1
*I *71:S I *C 15.87 18.19 *L 0.00467 *D sky130_fd_sc_hd__mux2i_1

*CAP
1 *7 0.000290219
2 *95:A 1.78574e-05
3 *93:B 1.78574e-05
4 *88:S 1.78574e-05
5 *86:S 1.78574e-05
6 *73:S 1.78574e-05
7 *71:S 1.78574e-05
8 *7:7 0.000205715
9 *7:8 0.000205715
10 *7:9 8.75492e-05
11 *7:10 9.44891e-05
12 *7:11 0.000310546
13 *7:12 0.000310546
14 *7:13 0.000171184
15 *7:14 0.000171184
16 *7:15 8.17084e-05
17 *7:16 8.17084e-05
18 *7:17 0.00036349
19 *7:18 0.000165898
20 *7:19 0.00068598
21 *7:20 0.000685708
22 *7:21 0.00014288
23 *7:22 0.000167175
24 *7:23 0.000185566
25 *7:24 0.00013885
26 *7:25 8.61884e-05
27 *7:26 6.02398e-05
28 *7:27 6.02398e-05
29 *7:28 0.000244508
30 *7:29 0.000244508
31 *7:30 0.000272173
32 *7:31 0.000359
33 *7:32 8.75492e-05
34 *7:33 9.44891e-05
35 *7:34 0.000142744
36 *7:35 0.000142744
37 *7:36 0.000127074
38 *7:37 0.000331879
39 *7:38 0.000154718
40 *7:39 0.000318491
41 *7:40 0.000321181
42 *7:41 0.000325222
43 *7:42 7.36799e-05
44 *7:43 6.26159e-05
45 *7:31 *30:5 0.00010664
46 *7:38 *30:6 0.00010664
47 *7:26 *30:5 6.928e-05
48 *7:27 *30:6 6.92799978e-05
49 *7:26 *45:4 0.00016165
50 *7:27 *45:5 0.000161650006
51 *7:13 *48:2 0.00018475
52 *7:14 *48:3 0.000184750005
53 *7:21 *34:12 0.00016709
54 *7:22 *34:11 0.000167090005
55 *7:15 *51:4 4.619e-05
56 *7:16 *51:5 4.619e-05
57 *7:17 *51:6 9.373e-05
58 *7:18 *51:7 9.373e-05
59 *7:19 *51:2 4.301e-05
60 *7:20 *51:3 4.301e-05
61 *7:19 *51:11 3.692e-05
62 *7:20 *51:10 3.692e-05
63 *7:17 *51:11 1.29e-05
64 *7:18 *51:10 1.28999988e-05
65 *7:11 *17:8 0.00016165
66 *7:12 *17:6 0.000161650006

*RES
1 *7 *7:41 0.537395
2 *7:40 *7:41 3.99998
3 *7:40 *7:39 0.576527
4 *7:22 *7:39 3.99998
5 *7:43 *95:A 3.99998
6 *7:32 *93:B 3.99998
7 *7:22 *7:21 2.80358
8 *7:24 *73:S 3.99998
9 *7:43 *7:25 0.303574
10 *7:33 *7:32 0.410702
11 *7:16 *7:21 0.410702
12 *7:24 *7:23 0.821404
13 *7:23 *7:25 0.821404
14 *7:30 *7:33 3.99998
15 *7:16 *7:15 1.21429
16 *7:31 *7:23 3.99998
17 *7:31 *7:30 2.12502
18 *7:12 *7:15 0.410702
19 *7:38 *7:31 2.73216
20 *7:12 *7:11 3.33931
21 *7:34 *7:38 3.99998
22 *7:11 *7:42 0.410702
23 *7:35 *71:S 3.99998
24 *7:35 *7:34 0.821404
25 *7:29 *7:42 3.99998
26 *7:26 *7:35 3.99998
27 *7:29 *7:28 1.23211
28 *7:27 *7:26 2.12502
29 *7:36 *88:S 3.99998
30 *7:14 *7:28 3.99998
31 *7:9 *86:S 3.99998
32 *7:37 *7:27 3.99998
33 *7:37 *7:36 1.23211
34 *7:14 *7:13 2.73216
35 *7:10 *7:9 0.410702
36 *7:17 *7:37 2.4643
37 *7:17 *7:13 3.99998
38 *7:7 *7:10 3.99998
39 *7:18 *7:17 2.4643
40 *7:8 *7:7 1.51787
41 *7:18 *7:19 0.607147
42 *7:20 *7:8 3.99998
43 *7:20 *7:19 5.75
*END

*D_NET *8 0.00968637

*CONN
*P *8 I *C 5.75 0 *L 0
*I *94:A I *C 4.37 20.23 *L 0.00238 *D sky130_fd_sc_hd__nor2_1
*I *78:A I *C 19.09 9.35 *L 0.00238 *D sky130_fd_sc_hd__nor2_1
*I *75:B2 I *C 16.79 1.53 *L 0.00236 *D sky130_fd_sc_hd__a221oi_1
*I *64:A I *C 13.57 14.79 *L 0.00238 *D sky130_fd_sc_hd__nor2_1
*I *63:B2 I *C 16.79 6.97 *L 0.00236 *D sky130_fd_sc_hd__a221oi_1

*CAP
1 *8 8.88788e-05
2 *94:A 1.78517e-05
3 *78:A 1.78517e-05
4 *75:B2 1.78517e-05
5 *64:A 1.78517e-05
6 *63:B2 1.78517e-05
7 *8:6 0.000382950078
8 *8:7 0.000382950078
9 *8:8 8.61031e-05
10 *8:9 5.37714e-05
11 *8:10 0.000191303
12 *8:11 0.000191303
13 *8:12 4.90382e-05
14 *8:13 5.99011e-05
15 *8:14 0.000172802
16 *8:15 0.00020386
17 *8:16 0.000104358
18 *8:17 0.000130262
19 *8:18 0.000151731
20 *8:19 0.000185757
21 *8:20 0.000207232
22 *8:21 0.00020798
23 *8:22 0.000226772
24 *8:23 0.000177652
25 *8:24 0.000177652
26 *8:25 0.000107531
27 *8:26 0.00013482
28 *8:27 0.00012592
29 *8:28 0.000136509
30 *8:29 0.000258432
31 *8:30 0.000250532
32 *8:31 0.000234649
33 *8:32 0.000212912
34 *8:33 8.331e-05
35 *8:34 9.05208e-05
36 *8:35 0.00014764
37 *8:36 0.000162167
38 *8:37 0.000123887
39 *8:38 9.50728e-05
40 *8:39 7.35982e-05
41 *8:40 6.26067e-05
42 *8:41 6.26067e-05
43 *8:27 *53:10 6.952e-05
44 *8:28 *53:8 6.952e-05
45 *8:29 *53:10 0.0003782
46 *8:30 *53:8 0.000378200002
47 *8:25 *45:4 0.0003464
48 *8:21 *45:5 0.0003464
49 *8:21 *45:4 0.00016165
50 *8:22 *45:5 0.00016165
51 *8:8 *45:9 6.249e-05
52 *8:9 *45:8 6.24900351e-05
53 *8:22 *38:2 6.676e-05
54 *8:26 *38:3 6.676e-05
55 *8:15 *38:2 1.74e-06
56 *8:16 *38:3 1.74e-06
57 *8:23 *38:6 1.29e-05
58 *8:24 *38:4 1.29e-05
59 *8:17 *38:8 2.581e-05
60 *8:18 *38:5 2.58099924e-05
61 *8:25 *16:14 0.00030021
62 *8:21 *16:15 0.00030021
63 *8:6 *16:14 9.538e-05
64 *8:7 *16:15 9.5380006e-05
65 *8:8 *21:6 6.249e-05
66 *8:9 *21:5 6.249e-05
67 *8:10 *21:6 0.00028119
68 *8:11 *21:5 0.00028119
69 *8:12 *21:6 3.634e-05
70 *8:13 *21:5 3.63399937e-05

*RES
1 *8 *8:37 0.155084
2 *8:40 *75:B2 4.00001
3 *8:30 *8:37 4.00001
4 *8:17 *8:40 0.303567
5 *8:30 *8:29 0.864773
6 *8:33 *78:A 4.00001
7 *8:18 *8:17 2.46432
8 *8:29 *8:28 0.0955377
9 *8:34 *8:33 0.410708
10 *8:16 *8:18 4.00001
11 *8:28 *8:27 0.432386
12 *8:34 *8:31 0.607134
13 *8:41 *63:B2 4.00001
14 *8:16 *8:15 0.723238
15 *8:15 *8:27 4.00001
16 *8:32 *8:31 2.46432
17 *8:19 *8:41 0.303567
18 *8:15 *8:14 2.00893
19 *8:39 *8:32 0.303567
20 *8:20 *8:19 1.64283
21 *8:14 *8:26 0.821416
22 *8:38 *8:39 0.821416
23 *8:22 *8:20 4.00001
24 *8:26 *8:22 2.12497
25 *8:21 *8:38 4.00001
26 *8:22 *8:21 2.73217
27 *8:21 *8:25 4.55357122
28 *8:23 *8:25 4.00001
29 *8:24 *64:A 4.00001
30 *8:24 *8:23 1.23212
31 *8:7 *8:24 4.00001
32 *8:7 *8:6 4.55357122
33 *8:8 *8:6 4.00001
34 *8:9 *8:8 2.05354
35 *8:10 *8:9 0.151818
36 *8:11 *8:10 3.69644
37 *8:11 *8:12 0.151818
38 *8:13 *8:12 0.821416
39 *8:13 *8:35 0.303567
40 *8:36 *8:35 1.64283
41 *94:A *8:36 4.00001
*END

*D_NET *9 0.00210158

*CONN
*P *9 I *C 2.3 0 *L 0
*I *61:A1 I *C 3.45 2.21 *L 0.00168 *D sky130_fd_sc_hd__mux2_2
*I *60:A1 I *C 3.45 3.23 *L 0.00168 *D sky130_fd_sc_hd__mux2_2

*CAP
1 *9 7.98985e-05
2 *61:A1 1.78503e-05
3 *60:A1 1.78503e-05
4 *9:3 0.00011323
5 *9:4 9.14501e-05
6 *9:5 8.27309e-05
7 *9:6 9.69505e-05
8 *9:7 9.96399e-05
9 *9:8 0.00011491
10 *9:9 0.00012253
11 *9:10 0.000139880498
12 *9:11 6.95593e-05
13 *9:12 6.90491e-05
14 *9:13 6.65091e-05
15 *9:14 6.24815e-05
16 *9:15 5.55403e-05
17 *9:16 8.10404e-05
18 *9:8 *15:10 0.00010962
19 *9 *15 0.000109620001
20 *9:15 *12:5 8.354e-05
21 *9:14 *12:17 8.35400013e-05

*RES
1 *9:16 *61:A1 4
2 *9:13 *9:16 0.410706
3 *9:11 *9:13 0.303589
4 *9:12 *9:11 4
5 *9:9 *9:12 0.410706
6 *9:9 *9:10 1.51788
7 *9:4 *9:10 4
8 *9:5 *60:A1 4
9 *9:4 *9:3 0.410706
10 *9:3 *9:5 0.410706
11 *9:15 *9:3 4
12 *9:14 *9:15 1.09821
13 *9:6 *9:14 4
14 *9:7 *9:6 0.108093
15 *9:8 *9:7 4
16 *9 *9:8 0.250671
*END

*D_NET *10 0.00105029

*CONN
*P *10 O *C 27.83 0 *L 1
*I *55:X O *C 21.85 1.19 *L 0 *D sky130_fd_sc_hd__buf_8

*CAP
1 *10 0.000117271
2 *55:X 1.7851e-05
3 *10:2 5.04594e-05
4 *10:3 5.73996e-05
5 *10:4 0.000152279
6 *10:5 0.0001491
7 *10:6 0.0001736
8 *10:7 0.00015604
9 *10:8 0.000176290293

*RES
1 *10 *10:4 0.15509
2 *10:8 *10:4 4
3 *10:6 *10:8 0.288269
4 *10:3 *10:6 4
5 *10:3 *10:2 0.125
6 *10:7 *10:2 4
7 *10:5 *10:7 1.64288
8 *55:X *10:5 4
*END

*D_NET *11 0.00397191

*CONN
*P *11 O *C 24.38 0 *L 1
*I *57:X O *C 15.87 12.07 *L 0 *D sky130_fd_sc_hd__buf_8

*CAP
1 *11 0.000417427
2 *57:X 1.78476e-05
3 *11:2 0.000918416
4 *11:3 0.000925348438
5 *11:4 0.000187964
6 *11:5 0.000181017
7 *11:6 0.000437082
8 *11:7 0.000434385
9 *11:8 0.00045243

*RES
1 *11 *11:8 0.728489
2 *11:6 *11:8 4.00004
3 *11:7 *11:6 0.756703
4 *11:3 *11:7 4.00004
5 *11:3 *11:2 6.26785707
6 *11:4 *11:2 4.00004
7 *11:5 *11:4 1.23213
8 *57:X *11:5 4.00004
*END

*D_NET *12 0.00494194

*CONN
*P *12 I *C 16.1 0 *L 0
*I *97:CLK I *C 5.29 1.53 *L 0.00173 *D sky130_fd_sc_hd__edfxtp_1
*I *96:CLK I *C 5.29 6.97 *L 0.00173 *D sky130_fd_sc_hd__edfxtp_1
*I *58:CLK I *C 9.89 3.91 *L 0.0035 *D sky130_fd_sc_hd__sdlclkp_1

*CAP
1 *12 0.000251903
2 *97:CLK 1.78537e-05
3 *96:CLK 1.78537e-05
4 *58:CLK 1.78537e-05
5 *12:4 0.000105669
6 *12:5 0.000161002
7 *12:6 0.000298276
8 *12:7 0.00043496
9 *12:8 0.000187729
10 *12:9 0.000109412
11 *12:10 0.000130883
12 *12:11 0.000123781
13 *12:12 0.000130989
14 *12:13 0.000113819
15 *12:14 0.000120761
16 *12:15 9.33437e-05
17 *12:16 9.0649e-05
18 *12:17 0.000123224
19 *12:18 0.000166239
20 *12:19 0.00015171
21 *12:21 6.95631e-05
22 *12:22 9.12995e-05
23 *12:23 3.61189e-05
24 *12:24 0.000253012
25 *12:13 *38:2 0.00012973
26 *12:14 *38:3 0.000129729996
27 *12:4 *13:10 2.309e-05
28 *12:5 *13:11 2.309e-05
29 *12:5 *13:22 6.676e-05
30 *12:17 *13:21 6.676e-05
31 *12:5 *13:10 4.619e-05
32 *12:17 *13:11 4.619e-05
33 *12:11 *13:14 9.373e-05
34 *12:12 *13:15 9.373e-05
35 *12:9 *13:16 0.00012497
36 *12:10 *13:17 0.00012497
37 *12:7 *13:16 1.29e-05
38 *12:8 *13:17 1.29e-05
39 *12:18 *13:6 6.249e-05
40 *12:19 *13:7 6.24899921e-05
41 *12:5 *9:15 8.354e-05
42 *12:17 *9:14 8.35400013e-05
43 *12:6 *34:10 6.249e-05
44 *12:7 *34:9 6.249e-05
45 *12:7 *34:8 0.00011614
46 *12:8 *34:6 0.000116140003

*RES
1 *12:18 *97:CLK 4.00003
2 *12:11 *96:CLK 4.00003
3 *12:19 *12:18 1.64283
4 *12:12 *12:11 1.64283
5 *12:21 *12:19 0.303599
6 *12:22 *12:12 0.607122
7 *12:17 *12:21 4.00003
8 *12:4 *12:22 4.00003
9 *12:17 *12:5 2.73216
10 *12:5 *12:4 1.82144
11 *12:10 *12:5 4.00003
12 *12:10 *12:9 2.0536
13 *12:8 *12:9 0.303599
14 *12:7 *58:CLK 4.00003
15 *12:8 *12:7 3.69643
16 *12:7 *12:6 4.92857122
17 *12:13 *12:6 4.00003
18 *12:14 *12:13 1.70533
19 *12:16 *12:14 4.00003
20 *12:16 *12:15 0.105737
21 *12 *12:24 0.250655
22 *12:23 *12:15 4.00003
23 *12:23 *12:24 0.00233132
24 *12:20 *12:23 0.314428
*END

*D_NET *13 0.00466436

*CONN
*P *13 I *C 7.13 0 *L 0
*I *97:DE I *C 7.59 1.87 *L 0.00324 *D sky130_fd_sc_hd__edfxtp_1
*I *96:DE I *C 7.59 7.31 *L 0.00324 *D sky130_fd_sc_hd__edfxtp_1
*I *58:GATE I *C 6.21 4.25 *L 0.00175 *D sky130_fd_sc_hd__sdlclkp_1

*CAP
1 *13 0.000353582
2 *97:DE 1.78537e-05
3 *96:DE 1.78537e-05
4 *58:GATE 1.78537e-05
5 *13:4 0.000157061
6 *13:5 0.000157061
7 *13:6 7.95561e-05
8 *13:7 0.000101033
9 *13:8 6.83257e-05
10 *13:9 7.82102e-05
11 *13:10 5.85123e-05
12 *13:11 3.43674e-05
13 *13:12 0.000127716
14 *13:13 0.000127716
15 *13:14 5.78601e-05
16 *13:15 7.93308e-05
17 *13:16 0.000218069
18 *13:17 0.000225013
19 *13:18 0.00038859
20 *13:19 0.000300039
21 *13:20 0.000297353
22 *13:21 0.00016002
23 *13:22 0.00014267
24 *13:23 6.26096e-05
25 *13:24 6.26096e-05
26 *13:8 *2:10 1.97e-05
27 *13:9 *2:9 1.97e-05
28 *13:9 *2:10 7.268e-05
29 *13:10 *2:9 7.268e-05
30 *13:10 *2:10 4.619e-05
31 *13:11 *2:9 4.619e-05
32 *13:12 *2:3 2.934e-05
33 *13:13 *2:4 2.934e-05
34 *13:14 *2:3 3.871e-05
35 *13:15 *2:4 3.87099945e-05
36 *13:10 *12:4 2.309e-05
37 *13:11 *12:5 2.309e-05
38 *13:22 *12:5 6.676e-05
39 *13:21 *12:17 6.676e-05
40 *13:10 *12:5 4.619e-05
41 *13:11 *12:17 4.619e-05
42 *13:14 *12:11 9.373e-05
43 *13:15 *12:12 9.373e-05
44 *13:16 *12:9 0.00012497
45 *13:17 *12:10 0.00012497
46 *13:16 *12:7 1.29e-05
47 *13:17 *12:8 1.29e-05
48 *13:6 *12:18 6.249e-05
49 *13:7 *12:19 6.24899921e-05

*RES
1 *13:24 *96:DE 4
2 *13:23 *97:DE 4
3 *13:12 *13:24 0.303589
4 *13:4 *13:23 0.303589
5 *13:13 *13:12 1.4375
6 *13:5 *13:4 1.4375
7 *13:14 *13:13 0.303589
8 *13 *13:18 0.824097
9 *13:6 *13:5 0.303589
10 *13:15 *13:14 1.64288
11 *13:19 *13:18 4
12 *13:7 *13:6 1.23212
13 *13:16 *58:GATE 4
14 *13:8 *13:15 4
15 *13:20 *13:19 0.504456
16 *13:21 *13:7 4
17 *13:17 *13:16 2.05359
18 *13:9 *13:8 0.866089
19 *13:9 *13:20 4
20 *13:21 *13:22 2.125
21 *13:10 *13:17 4
22 *13:10 *13:9 0.955383
23 *13:11 *13:22 0.410706
24 *13:11 *13:10 0.910706
*END

*D_NET *14 0.00223405

*CONN
*P *14 I *C 4.37 0 *L 0
*I *97:D I *C 6.865 1.478 *L 0.00178 *D sky130_fd_sc_hd__edfxtp_1

*CAP
1 *14 0.000154582
2 *97:D 1.78507e-05
3 *14:2 0.00019746
4 *14:3 0.000190522
5 *14:4 0.000245468
6 *14:5 0.000266939
7 *14:6 0.000147088
8 *14:7 0.000144401
9 *14:8 0.00018959
10 *14:9 0.000332809
11 *14:10 0.000347341484

*RES
1 *14 *14:8 0.441772
2 *14:6 *14:8 4
3 *14:10 *97:D 4
4 *14:7 *14:6 0.360352
5 *14:9 *14:10 2.66962
6 *14:2 *14:7 4
7 *14:9 *14:4 0.303589
8 *14:3 *14:2 0.901794
9 *14:5 *14:4 1.64288
10 *14:5 *14:3 4
*END

*D_NET *15 0.00501865

*CONN
*P *15 O *C 1.61 0 *L 1
*I *56:X O *C 14.49 9.69 *L 0 *D sky130_fd_sc_hd__buf_8

*CAP
1 *15 0.000361894
2 *56:X 1.78479e-05
3 *15:2 0.000130335
4 *15:3 0.000137277
5 *15:4 0.0007777
6 *15:5 0.000755699
7 *15:6 0.000115335
8 *15:7 0.000144266
9 *15:8 0.000139555
10 *15:9 0.000142237
11 *15:10 0.000396902
12 *15:10 *9:8 0.00010962
13 *15 *9 0.000109620001
14 *15:2 *5:2 0.00012158
15 *15:3 *5:3 0.00012158
16 *15:6 *16:5 0.00015622
17 *15:7 *16:6 0.000156219995
18 *15:4 *17:5 0.00034877
19 *15:5 *17:4 0.00034877
20 *15:4 *17:4 0.00021361
21 *15:5 *17:3 0.000213610003

*RES
1 *15:6 *56:X 3.99998
2 *15:7 *15:6 2.05357
3 *15:4 *15:7 0.910721
4 *15:5 *15:4 8.21428585
5 *15:2 *15:5 3.99998
6 *15:3 *15:2 2.14281
7 *15:8 *15:3 3.99998
8 *15:9 *15:8 0.216212
9 *15:10 *15:9 3.99998
10 *15 *15:10 0.91962
*END

*D_NET *16 0.0063745

*CONN
*I *96:D I *C 6.865 6.918 *L 0.00178 *D sky130_fd_sc_hd__edfxtp_1
*I *67:Q O *C 12.19 8.67 *L 0 *D sky130_fd_sc_hd__dfxtp_1
*I *65:A1 I *C 14.49 23.63 *L 0.00237 *D sky130_fd_sc_hd__a221o_1

*CAP
1 *96:D 1.78512e-05
2 *67:Q 1.78512e-05
3 *65:A1 1.78512e-05
4 *16:3 0.0001461
5 *16:4 0.000124358
6 *16:5 3.55683e-05
7 *16:6 8.18487e-05
8 *16:7 9.76027e-05
9 *16:8 3.86612e-05
10 *16:9 6.01278e-05
11 *16:10 7.61925e-05
12 *16:11 7.61925e-05
13 *16:12 0.00010239
14 *16:13 0.000122042
15 *16:14 0.00046276875
16 *16:15 0.000443117
17 *16:16 0.000302969
18 *16:17 0.000276397
19 *16:18 0.000276397
20 *16:19 0.000296028
21 *16:20 6.95618e-05
22 *16:21 6.78812e-05
23 *16:14 *45:4 8.584e-05
24 *16:15 *45:5 8.584e-05
25 *16:14 *45:6 0.00011547
26 *16:15 *45:7 0.000115469996
27 *16:14 *8:25 0.00030021
28 *16:15 *8:21 0.00030021
29 *16:14 *8:6 9.538e-05
30 *16:15 *8:7 9.5380006e-05
31 *16:13 *35:15 0.00011547
32 *16:14 *35:16 0.00011547
33 *16:14 *35:16 0.00016165
34 *16:15 *35:22 0.000161650005
35 *16:5 *48:5 3.124e-05
36 *16:6 *48:4 3.124e-05
37 *16:6 *48:5 0.00012497
38 *16:7 *48:4 0.00012497
39 *16:8 *48:5 3.124e-05
40 *16:9 *48:4 3.124e-05
41 *16:10 *48:5 2.581e-05
42 *16:11 *48:4 2.581e-05
43 *16:3 *48:5 8.383e-05
44 *16:4 *48:4 8.38299993e-05
45 *16:5 *15:6 0.00015622
46 *16:6 *15:7 0.000156219995
47 *16:3 *17:5 0.00025504
48 *16:4 *17:4 0.00025503999

*RES
1 *16:21 *65:A1 3.99994
2 *16:12 *16:21 3.99994
3 *16:13 *16:12 0.91077
4 *16:14 *16:13 1.5179
5 *16:15 *16:14 9.10714245
6 *16:20 *16:15 3.99994
7 *16:5 *16:20 0.303636
8 *16:6 *16:5 2.05361
9 *16:6 *67:Q 3.99994
10 *16:7 *16:6 1.64283
11 *16:3 *16:7 0.607134
12 *16:4 *16:3 4.10708
13 *16:4 *16:10 0.303636
14 *16:11 *16:10 0.821416
15 *16:11 *16:8 0.303636
16 *16:9 *16:8 0.410777
17 *16:18 *16:9 3.99994
18 *16:19 *96:D 3.99994
19 *16:17 *16:18 2.42853
20 *16:16 *16:19 2.25886
21 *16:16 *16:17 3.99994
*END

*D_NET *17 0.00303753

*CONN
*I *68:Q O *C 12.19 13.09 *L 0 *D sky130_fd_sc_hd__dfxtp_1
*I *67:D I *C 6.67 9.01 *L 0.00158 *D sky130_fd_sc_hd__dfxtp_1
*I *66:A1 I *C 3.45 9.01 *L 0.00238 *D sky130_fd_sc_hd__a22oi_1

*CAP
1 *68:Q 1.78512e-05
2 *67:D 1.78512e-05
3 *66:A1 1.78512e-05
4 *17:3 0.00012241
5 *17:4 0.000144590293
6 *17:5 8.77603e-05
7 *17:6 6.70607e-05
8 *17:7 0.0001103
9 *17:8 6.70607e-05
10 *17:9 0.000103361
11 *17:8 *51:4 0.00016165
12 *17:6 *51:5 0.000161650006
13 *17:8 *7:11 0.00016165
14 *17:6 *7:12 0.000161650006
15 *17:5 *16:3 0.00025504
16 *17:4 *16:4 0.00025503999
17 *17:5 *15:4 0.00034877
18 *17:4 *15:5 0.00034877
19 *17:4 *15:4 0.00021361
20 *17:3 *15:5 0.000213610003

*RES
1 *17:9 *68:Q 3.99997
2 *17:7 *17:9 0.410728
3 *17:8 *17:7 3.99997
4 *17:6 *17:8 2.125
5 *17:5 *17:6 3.99997
6 *17:4 *67:D 3.99997
7 *17:4 *17:5 4.58482122
8 *17:3 *17:4 2.80801
9 *66:A1 *17:3 3.99997
*END

*D_NET *18 0.00425463

*CONN
*I *70:Q O *C 12.19 14.11 *L 0 *D sky130_fd_sc_hd__dfxtp_1
*I *68:D I *C 6.67 12.75 *L 0.00158 *D sky130_fd_sc_hd__dfxtp_1
*I *65:B1 I *C 14.03 23.63 *L 0.0024 *D sky130_fd_sc_hd__a221o_1

*CAP
1 *70:Q 1.78509e-05
2 *68:D 1.78509e-05
3 *65:B1 1.78509e-05
4 *18:3 0.000213918
5 *18:4 0.00022086
6 *18:5 8.77426e-05
7 *18:6 0.00024148
8 *18:7 0.00024148
9 *18:8 9.46802e-05
10 *18:9 0.000102471
11 *18:10 8.15918e-05
12 *18:11 0.000269988223
13 *18:12 0.000205131
14 *18:13 6.53805e-05
15 *18:14 9.56607e-05
16 *18:15 7.465e-05
17 *18:7 *21:3 0.00013856
18 *18:6 *21:4 0.000138559996
19 *18:7 *20:7 0.00011547
20 *18:6 *20:8 0.00011547
21 *18:12 *51:4 4.619e-05
22 *18:11 *51:5 4.619e-05
23 *18:11 *51:4 9.237e-05
24 *18:9 *51:5 9.237e-05
25 *18:15 *51:6 1.29e-05
26 *18:10 *51:7 1.28999984e-05
27 *18:8 *44:2 0.00034877
28 *18:5 *44:3 0.000348769999
29 *18:8 *24:3 0.00034877
30 *18:5 *24:4 0.000348769999

*RES
1 *18:3 *65:B1 4.00001
2 *18:4 *18:3 2.05355
3 *18:14 *18:4 4.00001
4 *18:13 *18:14 0.910714
5 *18:7 *18:13 0.20537
6 *18:6 *18:7 4.85714293
7 *18:15 *70:Q 4.00001
8 *18:6 *18:12 0.20537
9 *18:10 *18:15 0.41074
10 *18:11 *18:12 2.73214
11 *18:11 *18:10 4.00001
12 *18:9 *18:11 1.21429
13 *18:8 *18:9 4.00001
14 *18:5 *18:8 4.58485
15 *68:D *18:5 4.00001
*END

*D_NET *19 0.00486433

*CONN
*I *72:Q O *C 12.19 18.53 *L 0 *D sky130_fd_sc_hd__dfxtp_1
*I *70:D I *C 6.67 14.45 *L 0.00158 *D sky130_fd_sc_hd__dfxtp_1
*I *66:B1 I *C 2.99 9.01 *L 0.00236 *D sky130_fd_sc_hd__a22oi_1

*CAP
1 *72:Q 1.78533e-05
2 *70:D 1.78533e-05
3 *66:B1 1.78533e-05
4 *19:3 6.78799e-05
5 *19:4 9.75262e-05
6 *19:5 0.000181996
7 *19:6 9.94449e-05
8 *19:7 5.24484e-05
9 *19:8 0.000141738
10 *19:9 0.00076672
11 *19:10 0.000159088
12 *19:11 0.000160527
13 *19:12 9.86493e-05
14 *19:13 0.00011318
15 *19:14 0.000759782
16 *19:7 *5:2 2.309e-05
17 *19:6 *5:3 2.309e-05
18 *19:6 *5:2 0.0003233
19 *19:4 *5:3 0.0003233
20 *19:11 *5:4 6.249e-05
21 *19:5 *5:5 6.24900247e-05
22 *19:6 *32:19 0.00013856
23 *19:4 *32:20 0.00013856
24 *19:6 *32:20 0.00016165
25 *19:4 *32:21 0.00016165
26 *19:14 *32:22 0.00012497
27 *19:9 *32:23 0.000124970003
28 *19:14 *20:3 0.00010196
29 *19:9 *20:4 0.000101959998
30 *19:13 *51:2 0.00011988
31 *19:12 *51:3 0.000119879998

*RES
1 *19:14 *72:Q 4.00002
2 *19:13 *70:D 4.00002
3 *19:9 *19:14 7.80357122
4 *19:12 *19:13 1.57593
5 *19:10 *19:9 4.00002
6 *19:11 *19:12 0.303517
7 *19:8 *19:10 1.51782
8 *19:5 *19:11 1.64285
9 *19:7 *19:8 0.410683
10 *19:6 *19:5 4.00002
11 *19:6 *19:7 0.910671
12 *19:4 *19:6 4.24996
13 *19:3 *19:4 4.00002
14 *66:B1 *19:3 4.00002
*END

*D_NET *20 0.00217589

*CONN
*I *74:Q O *C 12.19 19.55 *L 0 *D sky130_fd_sc_hd__dfxtp_1
*I *72:D I *C 6.67 18.19 *L 0.00158 *D sky130_fd_sc_hd__dfxtp_1
*I *71:A1 I *C 13.57 17.51 *L 0.00227 *D sky130_fd_sc_hd__mux2i_1

*CAP
1 *74:Q 1.78497e-05
2 *72:D 1.78497e-05
3 *71:A1 1.78497e-05
4 *20:3 0.00014978
5 *20:4 0.000141171
6 *20:5 9.00508e-05
7 *20:6 7.55197e-05
8 *20:7 6.02411e-05
9 *20:8 6.02411e-05
10 *20:9 6.78792e-05
11 *20:7 *22:8 0.00011547
12 *20:8 *22:11 0.00011547
13 *20:7 *18:7 0.00011547
14 *20:8 *18:6 0.00011547
15 *20:3 *46:6 0.00038002
16 *20:4 *46:2 0.00038002
17 *20:5 *46:6 2.581e-05
18 *20:6 *46:2 2.58099861e-05
19 *20:3 *19:14 0.00010196
20 *20:4 *19:9 0.000101959998

*RES
1 *20:9 *74:Q 4.00003
2 *20:5 *71:A1 4.00003
3 *20:7 *20:9 4.00003
4 *20:6 *20:5 1.23211
5 *20:8 *20:7 1.51788
6 *20:6 *20:3 0.303607
7 *20:3 *20:8 4.00003
8 *20:4 *20:3 4.99553585
9 *72:D *20:4 4.00003
*END

*D_NET *21 0.00206536

*CONN
*I *76:Q O *C 12.19 23.97 *L 0 *D sky130_fd_sc_hd__dfxtp_1
*I *74:D I *C 6.67 19.89 *L 0.00158 *D sky130_fd_sc_hd__dfxtp_1
*I *73:A1 I *C 14.95 19.55 *L 0.00183 *D sky130_fd_sc_hd__mux2_1

*CAP
1 *76:Q 1.78512e-05
2 *74:D 1.78512e-05
3 *73:A1 1.78512e-05
4 *21:3 0.000103027
5 *21:4 0.000103027
6 *21:5 0.00018431
7 *21:6 0.00032335
8 *21:7 6.7882e-05
9 *21:8 0.000193053
10 *21:3 *18:7 0.00013856
11 *21:4 *18:6 0.000138559996
12 *21:6 *8:8 6.249e-05
13 *21:5 *8:9 6.249e-05
14 *21:6 *8:10 0.00028119
15 *21:5 *8:11 0.00028119
16 *21:6 *8:12 3.634e-05
17 *21:5 *8:13 3.63399937e-05

*RES
1 *21:7 *76:Q 4.00003
2 *21:3 *21:7 4.00003
3 *21:8 *73:A1 4.00003
4 *21:4 *21:3 1.82142
5 *21:6 *21:8 2.4643
6 *21:6 *21:4 4.00003
7 *21:5 *21:6 4.99553585
8 *74:D *21:5 4.00003
*END

*D_NET *22 0.00587548

*CONN
*I *77:Q O *C 26.91 23.97 *L 0 *D sky130_fd_sc_hd__dfxtp_1
*I *76:D I *C 6.67 23.63 *L 0.00158 *D sky130_fd_sc_hd__dfxtp_1
*I *71:A0 I *C 12.65 17.85 *L 0.00222 *D sky130_fd_sc_hd__mux2i_1

*CAP
1 *77:Q 1.7858e-05
2 *76:D 1.7858e-05
3 *71:A0 1.7858e-05
4 *22:3 0.000421199
5 *22:4 0.000421199
6 *22:5 0.000121809
7 *22:6 0.000147199
8 *22:7 0.000154685
9 *22:8 0.000273194
10 *22:9 0.00075359
11 *22:10 0.000189838
12 *22:11 0.000196599
13 *22:12 6.78789e-05
14 *22:13 7.809e-05
15 *22:14 0.000625537
16 *22:15 0.000566983
17 *22:16 0.000625537
18 *22:17 0.000103192
19 *22:18 0.000128582
20 *22:8 *20:7 0.00011547
21 *22:11 *20:8 0.00011547
22 *22:15 *37:11 0.00020308
23 *22:9 *37:12 0.000203080005
24 *22:16 *23:5 6.662e-05
25 *22:14 *23:6 6.662e-05
26 *22:16 *23:6 6.242e-05
27 *22:14 *23:7 6.242e-05
28 *22:15 *23:6 2.581e-05
29 *22:9 *23:7 2.58100073e-05

*RES
1 *22:12 *71:A0 4.00001
2 *22:18 *77:Q 4.00001
3 *22:11 *22:12 4.00001
4 *22:17 *22:18 0.821416
5 *22:11 *22:8 2.73216
6 *22:16 *22:17 0.151818
7 *22:8 *22:7 1.82144
8 *22:14 *22:16 6.16071415
9 *22:7 *22:13 0.910721
10 *22:14 *22:15 0.151818
11 *22:9 *22:13 4.00001
12 *22:9 *22:15 5.75001
13 *22:10 *22:9 1.23212
14 *22:3 *22:10 0.151818
15 *22:4 *22:3 3.28576
16 *22:5 *22:4 0.151818
17 *22:6 *22:5 0.888348
18 *76:D *22:6 4.00001
*END

*D_NET *23 0.00396112

*CONN
*I *80:Q O *C 26.91 14.11 *L 0 *D sky130_fd_sc_hd__dfxtp_1
*I *77:D I *C 21.39 23.63 *L 0.00158 *D sky130_fd_sc_hd__dfxtp_1
*I *73:A0 I *C 14.49 19.55 *L 0.00151 *D sky130_fd_sc_hd__mux2_1

*CAP
1 *80:Q 1.78484e-05
2 *77:D 1.78484e-05
3 *73:A0 1.78484e-05
4 *23:3 0.000110428
5 *23:4 0.000103491
6 *23:5 0.000137922
7 *23:6 0.000326314