* File: /tools/projects/aryap/bfg_analysis/LutB-double-buffed/pex/LutB.pex.sp
* Created: Wed May 20 13:56:57 2026
* Program "Calibre xRC"
* Version "v2022.2_24.16"
* 
* 
* .include "/tools/projects/aryap/bfg_analysis/LutB-double-buffed/pex/LutB.pex.sp.pex"
* BEGIN of "/tools/projects/aryap/bfg_analysis/LutB-double-buffed/pex/LutB.pex.sp.pex"
* File: /tools/projects/aryap/bfg_analysis/LutB-double-buffed/pex/LutB.pex.sp.pex
* Created: Wed May 20 13:56:57 2026
* Program "Calibre xRC"
* Version "v2022.2_24.16"
* Nominal Temperature: 27C
* Circuit Temperature: 27C
* 
.subckt PM_LutB%VGND 1 2 3 4 5 6 7 8 9 10 11 12 13 14 15 16 17 18 19 20 21 22 23
+ 24 25 26 27 28 29 30 31 32 33 34 35 36 37 38 39 40 41 42 44 45 46 47 48 49 50
+ 51 52 53 54 55 56 57 58 59 60 61 62 63 64 65 66 67 68 69 70 71 72 73 74 75 76
+ 77 78 79 80 81 82 83 84 85 86 87 88 89 90 91 92 93 94 95 96 97 666 668 673 985
+ 989 993 997 1005 1009 1013 1017 1021 1025 1029 1033 1037 1039 1041 1043 1045
+ 1047 1051 1055 1059 1063 1067 1069 1071 1073 1075 1077 1085 1089 1093 1097
+ 1099 1103 1107 1111 1117 1121 1125 1129 1133 1135 1139 1143 1147 1151 1157
+ 1161 1165 1169 1171 1175 1179 1183 1189 1193 1197 1201 1205 1209 1213 1217
+ 1221 1223 1227 1231 1235 1239 1283 1285 1289 1293 1297 1301 1303 1307 1311
+ 1313 1319 1323 1327 1331 1333 1339 1345 1347 1353 1357 1359 1361 1367 1369
+ 1375 1377 1383 1385 1391 1393 1399 1401 1407 1409 1416 1422 1426 1433 1434
+ 1435 1443 1445 1449 1451 1459 1461 1469 1473 1475 1479 1485 1491 1493 1499
+ 1501 1507 1544 1548 1552 1556 1562 1566 1570 1574 1578 1582 1586 1590 1592
+ 1594 1596 1598 1600 1604 1606 1612 1616 1620 1624 1626 1628 1630 1632 1643
+ 1647 1651 1655 1659 1661 1665 1669 1673 1679 1683 1687 1691 1695 1697 1701
+ 1705 1709 1713 1719 1723 1727 1731 1733 1737 1741 1745 1751 1755 1759 1763
+ 1767 1771 1775 1779 1783 1787 1791 1795 1799 1803 1806 1808 1810 1812 1814
+ 1816 1818 1820 1822 1826 1828 1830 1832 1833 1834 1835 1836 1839 1840 1841
+ 1842 1844 1846 1848 1850 1854 1856 1886 1890 1894 1896 1913 1915 1919 1923
+ 1925 1931 1933 1935 1937 1941 1943 1945 1947 1951 1953 1955 1957 1959 1961
+ 1962 1963 1964 1967 1968 1969 1970 1972 1974 1976 1978 2096 2129 2169 2209
+ 2316 2356 2389 2422 2454 2469 2485 2486 VGND
c4595 2469 VGND 5.89817e-19
c4596 2454 VGND 7.71884e-19
c4597 1978 VGND 9.71787e-20
c4598 1976 VGND 9.71787e-20
c4599 1974 VGND 9.71787e-20
c4600 1972 VGND 1.26792e-19
c4601 1970 VGND 1.79477e-19
c4602 1969 VGND 1.79477e-19
c4603 1968 VGND 1.79477e-19
c4604 1967 VGND 1.21865e-19
c4605 1961 VGND 1.32363e-19
c4606 1959 VGND 1.97184e-19
c4607 1957 VGND 1.97184e-19
c4608 1955 VGND 1.97184e-19
c4609 1943 VGND 1.80307e-19
c4610 1933 VGND 1.19856e-19
c4611 1854 VGND 1.54791e-19
c4612 1836 VGND 1.96959e-19
c4613 1835 VGND 1.96959e-19
c4614 1834 VGND 1.96959e-19
c4615 1822 VGND 1.87224e-19
c4616 1820 VGND 1.87224e-19
c4617 1818 VGND 1.87224e-19
c4618 1812 VGND 1.19856e-19
c4619 1810 VGND 1.19856e-19
c4620 1808 VGND 1.19856e-19
c4621 1803 VGND 1.39174e-19
c4622 1767 VGND 1.70577e-19
c4623 1763 VGND 1.70577e-19
c4624 1759 VGND 1.70577e-19
c4625 1755 VGND 1.70577e-19
c4626 1737 VGND 1.25765e-19
c4627 1719 VGND 1.4313e-19
c4628 1604 VGND 1.75884e-19
c4629 1590 VGND 2.98359e-19
c4630 1586 VGND 1.70577e-19
c4631 1582 VGND 1.70577e-19
c4632 1578 VGND 1.70577e-19
c4633 1479 VGND 1.7635e-19
c4634 1461 VGND 9.95739e-20
c4635 1443 VGND 1.70577e-19
c4636 1311 VGND 3.29359e-19
c4637 1297 VGND 1.70577e-19
c4638 1283 VGND 1.75394e-19
c4639 1201 VGND 1.70577e-19
c4640 1197 VGND 1.70577e-19
c4641 1193 VGND 1.70577e-19
c4642 1189 VGND 2.38564e-19
c4643 1165 VGND 1.45939e-19
c4644 1037 VGND 1.70577e-19
c4645 1033 VGND 1.70577e-19
c4646 1029 VGND 1.70577e-19
c4647 1025 VGND 1.70577e-19
c4648 1021 VGND 1.70577e-19
c4649 673 VGND 0.00386935f
c4650 65 VGND 1.74282e-19
c4651 40 VGND 6.58293e-20
r4652 2481 2486 1.79353
r4653 2477 2486 1.29407
r4654 2475 2477 3.0876
r4655 2472 2475 3.0876
r4656 2469 2472 3.0876
r4657 2466 2485 1.79353
r4658 2462 2485 1.29407
r4659 2460 2462 3.0876
r4660 2457 2460 3.0876
r4661 2454 2457 3.0876
r4662 2420 2422 0.130889
r4663 2418 2420 0.130889
r4664 2416 2418 0.261778
r4665 2414 2416 0.146539
r4666 2412 2414 0.0554856
r4667 2410 2477 4.5
r4668 2410 2412 0.00995896
r4669 2407 2410 0.0497948
r4670 2405 2407 0.0754035
r4671 2403 2405 0.170725
r4672 2401 2403 0.0156498
r4673 2399 2401 0.261778
r4674 2397 2399 0.261778
r4675 2395 2397 0.130889
r4676 2392 2395 0.130889
r4677 2387 2389 0.130889
r4678 2385 2387 0.130889
r4679 2383 2385 0.261778
r4680 2381 2383 0.146539
r4681 2379 2381 0.0554856
r4682 2377 2475 4.5
r4683 2377 2379 0.00995896
r4684 2374 2377 0.0497948
r4685 2372 2374 0.0754035
r4686 2370 2372 0.170725
r4687 2368 2370 0.0156498
r4688 2366 2368 0.261778
r4689 2364 2366 0.261778
r4690 2362 2364 0.130889
r4691 2359 2362 0.130889
r4692 2354 2356 0.130889
r4693 2352 2354 0.130889
r4694 2350 2352 0.261778
r4695 2348 2350 0.146539
r4696 2346 2348 0.0554856
r4697 2344 2472 4.5
r4698 2344 2346 0.00995896
r4699 2341 2344 0.0497948
r4700 2339 2341 0.0754035
r4701 2337 2339 0.170725
r4702 2335 2337 0.0156498
r4703 2333 2335 0.261778
r4704 2331 2333 0.261778
r4705 2329 2331 0.130889
r4706 2327 2329 0.130889
r4707 2325 2327 0.130889
r4708 2323 2325 0.130889
r4709 2319 2323 0.130889
r4710 2314 2316 0.130889
r4711 2312 2314 0.130889
r4712 2310 2312 0.392668
r4713 2308 2310 0.0156498
r4714 2306 2308 0.0554856
r4715 2304 2481 4.5
r4716 2304 2306 0.00995896
r4717 2301 2304 0.0497948
r4718 2299 2301 0.392668
r4719 2297 2299 0.130889
r4720 2295 2297 0.261778
r4721 2293 2295 0.0256088
r4722 2291 2293 0.23617
r4723 2289 2291 0.130889
r4724 2287 2289 0.130889
r4725 2285 2287 0.392668
r4726 2283 2285 0.0156498
r4727 2281 2283 0.115239
r4728 2279 2281 0.392668
r4729 2277 2279 0.130889
r4730 2275 2277 0.261778
r4731 2273 2275 0.261778
r4732 2270 2273 0.130889
r4733 2268 2270 0.261778
r4734 2265 2268 0.130889
r4735 2263 2265 0.130889
r4736 2261 2263 0.130889
r4737 2259 2261 0.130889
r4738 2257 2259 0.130889
r4739 2255 2257 0.130889
r4740 2253 2255 0.130889
r4741 2250 2253 0.196334
r4742 2248 2250 0.130889
r4743 2246 2248 0.130889
r4744 2244 2246 0.130889
r4745 2242 2244 0.130889
r4746 2240 2242 0.130889
r4747 2238 2240 0.130889
r4748 2236 2238 0.196334
r4749 2234 2236 0.130889
r4750 2232 2234 0.130889
r4751 2230 2232 0.130889
r4752 2228 2230 0.392668
r4753 2226 2228 0.0156498
r4754 2224 2226 0.115239
r4755 2222 2224 0.0554856
r4756 2219 2466 4.5
r4757 2219 2222 0.125198
r4758 2217 2219 0.211984
r4759 2215 2217 0.130889
r4760 2212 2215 0.261778
r4761 2207 2209 0.130889
r4762 2204 2207 0.130889
r4763 2202 2204 0.130889
r4764 2200 2202 0.130889
r4765 2198 2200 0.130889
r4766 2196 2198 0.130889
r4767 2194 2196 0.261778
r4768 2192 2194 0.146539
r4769 2190 2192 0.115239
r4770 2188 2190 0.0554856
r4771 2185 2462 4.5
r4772 2185 2188 0.125198
r4773 2183 2185 0.00995896
r4774 2181 2183 0.0554856
r4775 2179 2181 0.0156498
r4776 2177 2179 0.261778
r4777 2175 2177 0.261778
r4778 2172 2175 0.130889
r4779 2167 2169 0.130889
r4780 2164 2167 0.130889
r4781 2162 2164 0.130889
r4782 2160 2162 0.130889
r4783 2158 2160 0.130889
r4784 2156 2158 0.130889
r4785 2154 2156 0.261778
r4786 2152 2154 0.146539
r4787 2150 2152 0.115239
r4788 2148 2150 0.0554856
r4789 2145 2460 4.5
r4790 2145 2148 0.125198
r4791 2143 2145 0.00995896
r4792 2141 2143 0.0554856
r4793 2139 2141 0.0156498
r4794 2137 2139 0.261778
r4795 2135 2137 0.261778
r4796 2132 2135 0.130889
r4797 2127 2129 0.130889
r4798 2125 2127 0.130889
r4799 2123 2125 0.130889
r4800 2121 2123 0.261778
r4801 2119 2121 0.146539
r4802 2117 2119 0.115239
r4803 2115 2117 0.0554856
r4804 2113 2457 4.5
r4805 2113 2115 0.125198
r4806 2110 2113 0.00995896
r4807 2108 2110 0.0554856
r4808 2106 2108 0.0156498
r4809 2104 2106 0.261778
r4810 2102 2104 0.261778
r4811 2099 2102 0.130889
r4812 2094 2096 0.00142271
r4813 2092 2094 0.129466
r4814 2090 2092 0.130889
r4815 2088 2090 0.261778
r4816 2086 2469 4.5
r4817 2086 2088 0.211984
r4818 2083 2086 0.0497948
r4819 2081 2083 0.0754035
r4820 2079 2081 0.0554856
r4821 2077 2079 0.115239
r4822 2075 2077 0.0156498
r4823 2073 2075 0.130889
r4824 2070 2073 0.130889
r4825 2068 2070 0.130889
r4826 2066 2068 0.130889
r4827 2064 2066 0.130889
r4828 2062 2064 0.00142271
r4829 2060 2062 0.129466
r4830 2058 2060 0.130889
r4831 2056 2058 0.392668
r4832 2054 2056 0.130889
r4833 2052 2054 0.130889
r4834 2050 2052 0.261778
r4835 2048 2050 0.00142271
r4836 2046 2048 0.129466
r4837 2044 2046 0.130889
r4838 2042 2044 0.392668
r4839 2040 2042 0.130889
r4840 2038 2040 0.130889
r4841 2036 2038 0.261778
r4842 2034 2036 0.130889
r4843 2032 2034 0.130889
r4844 2030 2032 0.130889
r4845 2028 2030 0.130889
r4846 2026 2028 0.130889
r4847 2024 2026 0.392668
r4848 2022 2024 0.0156498
r4849 2020 2022 0.115239
r4850 2018 2020 0.392668
r4851 2016 2018 0.130889
r4852 2014 2016 0.261778
r4853 2012 2014 0.130889
r4854 2010 2012 0.130889
r4855 2008 2010 0.130889
r4856 2006 2008 0.130889
r4857 2004 2006 0.261778
r4858 2002 2004 0.146539
r4859 2000 2002 0.115239
r4860 1998 2000 0.0554856
r4861 1995 2454 4.5
r4862 1995 1998 0.125198
r4863 1993 1995 0.00995896
r4864 1991 1993 0.0554856
r4865 1989 1991 0.0156498
r4866 1987 1989 0.261778
r4867 1985 1987 0.261778
r4868 1982 1985 0.130889
r4869 1980 2314 9.3
r4870 1978 2420 9.3
r4871 1976 2387 9.3
r4872 1974 2354 9.3
r4873 1972 2092 9.3
r4874 1966 2310 4.65
r4875 1961 2083 9.3
r4876 1959 2401 4.65
r4877 1957 2368 4.65
r4878 1955 2335 4.65
r4879 1953 2075 9.3
r4880 1951 2073 9.3
r4881 1949 2297 4.65
r4882 1947 2399 4.65
r4883 1945 2366 4.65
r4884 1943 2333 4.65
r4885 1941 2068 9.3
r4886 1939 2295 6.2
r4887 1937 2397 9.3
r4888 1935 2364 9.3
r4889 1933 2331 9.3
r4890 1931 2066 9.3
r4891 1929 2327 9.3
r4892 1927 2060 9.3
r4893 1925 2392 9.3
r4894 1923 2359 9.3
r4895 1921 2289 9.3
r4896 1919 2323 9.3
r4897 1917 2285 4.65
r4898 1915 2054 9.3
r4899 1913 2046 9.3
r4900 1911 2277 4.65
r4901 1909 2275 4.65
r4902 1905 2270 6.2
r4903 1903 1905 0.518414
r4904 1901 1903 1.46884
r4905 1900 1901 13.3924
r4906 1898 2268 6.2
r4907 1898 1900 0.518414
r4908 1896 2040 9.3
r4909 1894 2036 9.3
r4910 1892 2265 9.3
r4911 1890 2032 9.3
r4912 1888 2261 9.3
r4913 1886 2028 9.3
r4914 1884 2257 9.3
r4915 1882 2253 9.3
r4916 1880 2024 4.65
r4917 1878 2250 9.3
r4918 1876 2246 9.3
r4919 1874 2242 9.3
r4920 1872 2016 4.65
r4921 1870 2207 9.3
r4922 1868 2167 9.3
r4923 1866 2238 9.3
r4924 1864 2014 9.3
r4925 1862 2236 9.3
r4926 1860 2202 9.3
r4927 1858 2162 9.3
r4928 1856 2129 9.3
r4929 1854 2012 9.3
r4930 1852 2232 9.3
r4931 1850 2198 9.3
r4932 1848 2158 9.3
r4933 1846 2125 9.3
r4934 1844 2008 9.3
r4935 1838 2228 4.65
r4936 1832 2179 4.65
r4937 1830 2139 4.65
r4938 1828 2106 4.65
r4939 1826 1989 4.65
r4940 1824 2215 4.65
r4941 1822 2177 4.65
r4942 1820 2137 4.65
r4943 1818 2104 4.65
r4944 1816 1987 4.65
r4945 1814 2212 4.65
r4946 1812 2175 9.3
r4947 1810 2135 9.3
r4948 1808 2102 9.3
r4949 1806 1985 9.3
r4950 1803 2096 9.3
r4951 1801 1972 4.30018
r4952 1801 1803 18.5936
r4953 1799 2316 9.3
r4954 1797 1980 7.02821
r4955 1797 1799 19.8984
r4956 1795 2422 9.3
r4957 1793 1978 3.71787
r4958 1793 1795 19.8984
r4959 1791 2389 9.3
r4960 1789 1976 3.71787
r4961 1789 1791 19.8984
r4962 1787 2356 9.3
r4963 1785 1974 3.71787
r4964 1785 1787 19.8984
r4965 1781 1980 0.00168595
r4966 1781 1783 13.5988
r4967 1777 1978 2.43149
r4968 1777 1779 13.5988
r4969 1773 1976 2.43149
r4970 1773 1775 13.5988
r4971 1769 1974 2.43149
r4972 1769 1771 13.5988
r4973 1765 1978 2.43149
r4974 1765 1767 29.0321
r4975 1761 1976 2.43149
r4976 1761 1763 29.0321
r4977 1757 1974 2.43149
r4978 1757 1759 29.0321
r4979 1753 1972 1.96316
r4980 1753 1755 29.0321
r4981 1749 1972 1.96316
r4982 1749 1751 10.2672
r4983 1748 2418 4.65
r4984 1746 1970 6.13603
r4985 1746 1748 27.0749
r4986 1745 1978 3.71787
r4987 1745 1748 22.508
r4988 1744 2385 4.65
r4989 1742 1969 6.13603
r4990 1742 1744 27.0749
r4991 1741 1976 3.71787
r4992 1741 1744 22.508
r4993 1740 2352 4.65
r4994 1738 1968 6.13603
r4995 1738 1740 27.0749
r4996 1737 1974 3.71787
r4997 1737 1740 22.508
r4998 1736 2090 4.65
r4999 1734 1967 6.13603
r5000 1734 1736 27.0749
r5001 1733 1972 4.30018
r5002 1733 1736 19.8984
r5003 1729 1970 0.593901
r5004 1729 1731 19.2771
r5005 1725 1969 0.593901
r5006 1725 1727 19.2771
r5007 1721 1968 0.593901
r5008 1721 1723 19.2771
r5009 1717 1967 0.593901
r5010 1717 1719 19.2771
r5011 1716 2312 4.65
r5012 1714 1966 9.31531
r5013 1714 1716 86.7701
r5014 1713 1980 7.02821
r5015 1713 1716 23.8128
r5016 1712 2416 4.65
r5017 1710 1964 9.31531
r5018 1710 1712 26.7487
r5019 1709 1970 6.13603
r5020 1709 1712 19.246
r5021 1708 2383 4.65
r5022 1706 1963 9.31531
r5023 1706 1708 26.7487
r5024 1705 1969 6.13603
r5025 1705 1708 19.246
r5026 1704 2350 4.65
r5027 1702 1962 9.31531
r5028 1702 1704 26.7487
r5029 1701 1968 6.13603
r5030 1701 1704 19.246
r5031 1700 2088 4.65
r5032 1698 1961 11.4275
r5033 1698 1700 47.9519
r5034 1697 1967 6.13603
r5035 1697 1700 19.246
r5036 1693 1966 1.24149
r5037 1693 1695 10.4343
r5038 1689 1964 1.24149
r5039 1689 1691 10.4343
r5040 1685 1963 1.24149
r5041 1685 1687 10.4343
r5042 1681 1962 1.24149
r5043 1681 1683 10.4343
r5044 1677 1961 2.12513
r5045 1677 1679 8.65398
r5046 1676 2407 4.65
r5047 1674 1959 9.31531
r5048 1674 1676 39.1444
r5049 1673 1964 9.31531
r5050 1673 1676 9.13369
r5051 1672 2374 4.65
r5052 1670 1957 9.31531
r5053 1670 1672 39.1444
r5054 1669 1963 9.31531
r5055 1669 1672 9.13369
r5056 1668 2341 4.65
r5057 1666 1955 9.31531
r5058 1666 1668 39.1444
r5059 1665 1962 9.31531
r5060 1665 1668 9.13369
r5061 1664 2079 9.3
r5062 1662 1953 9.31531
r5063 1662 1664 9.13369
r5064 1661 1961 11.4275
r5065 1661 1664 8.80749
r5066 1657 1959 1.24149
r5067 1657 1659 10.4343
r5068 1653 1957 1.24149
r5069 1653 1655 10.4343
r5070 1649 1955 1.24149
r5071 1649 1651 10.4343
r5072 1645 1953 1.24149
r5073 1645 1647 10.4343
r5074 1644 1951 7.85057
r5075 1643 1953 9.31531
r5076 1643 1644 17.2888
r5077 1638 1951 0.489042
r5078 1637 2301 4.65
r5079 1635 2299 4.65
r5080 1635 1637 90.0321
r5081 1633 1949 6.13603
r5082 1633 1635 19.246
r5083 1632 1966 9.31531
r5084 1632 1637 9.13369
r5085 1631 1947 6.13603
r5086 1630 1959 9.31531
r5087 1630 1631 45.9947
r5088 1629 1945 6.13603
r5089 1628 1957 9.31531
r5090 1628 1629 45.9947
r5091 1627 1943 6.13603
r5092 1626 1955 9.31531
r5093 1626 1627 45.9947
r5094 1622 1949 0.593901
r5095 1622 1624 19.2771
r5096 1618 1947 0.593901
r5097 1618 1620 19.2771
r5098 1614 1945 0.593901
r5099 1614 1616 19.2771
r5100 1610 1943 0.593901
r5101 1610 1612 19.2771
r5102 1609 2070 9.3
r5103 1607 1941 8.61065
r5104 1607 1609 19.246
r5105 1606 1951 7.85057
r5106 1606 1609 20.5508
r5107 1602 1941 0.89609
r5108 1602 1604 10.2672
r5109 1601 1939 5.16603
r5110 1600 1949 6.13603
r5111 1600 1601 49.5829
r5112 1599 1937 3.71787
r5113 1598 1947 6.13603
r5114 1598 1599 49.5829
r5115 1597 1935 3.71787
r5116 1596 1945 6.13603
r5117 1596 1597 49.5829
r5118 1595 1933 3.71787
r5119 1594 1943 6.13603
r5120 1594 1595 49.5829
r5121 1593 1931 7.02821
r5122 1592 1941 8.61065
r5123 1592 1593 13.0481
r5124 1588 1939 1.34256
r5125 1588 1590 29.0321
r5126 1584 1937 2.43149
r5127 1584 1586 29.0321
r5128 1580 1935 2.43149
r5129 1580 1582 29.0321
r5130 1576 1933 2.43149
r5131 1576 1578 29.0321
r5132 1572 1937 2.43149
r5133 1572 1574 13.5988
r5134 1568 1935 2.43149
r5135 1568 1570 13.5988
r5136 1564 1933 2.43149
r5137 1564 1566 13.5988
r5138 1560 1931 0.00168595
r5139 1560 1562 13.5988
r5140 1559 2064 9.3
r5141 1557 1927 5.04977
r5142 1557 1559 18.5936
r5143 1556 1931 7.02821
r5144 1556 1559 19.8984
r5145 1555 2395 9.3
r5146 1553 1925 3.3199
r5147 1553 1555 20.5508
r5148 1552 1937 3.71787
r5149 1552 1555 19.8984
r5150 1551 2362 9.3
r5151 1549 1923 3.3199
r5152 1549 1551 20.5508
r5153 1548 1935 3.71787
r5154 1548 1551 19.8984
r5155 1547 2329 9.3
r5156 1545 1929 10.4059
r5157 1545 1547 20.5508
r5158 1544 1933 3.71787
r5159 1544 1547 19.8984
r5160 1539 1925 3.24686
r5161 1534 1925 3.24686
r5162 1529 1923 3.24686
r5163 1524 1923 3.24686
r5164 1519 1929 3.57586
r5165 1514 1929 3.57586
r5166 1509 1927 1.44159
r5167 1505 1927 1.44159
r5168 1505 1507 10.2672
r5169 1504 2291 6.2
r5170 1502 1921 7.02821
r5171 1502 1504 19.8984
r5172 1501 1939 5.16603
r5173 1501 1504 56.4332
r5174 1497 1921 0.00168595
r5175 1497 1499 13.5988
r5176 1496 2325 9.3
r5177 1494 1919 8.61065
r5178 1494 1496 19.246
r5179 1493 1929 10.4059
r5180 1493 1496 20.5508
r5181 1489 1919 0.89609
r5182 1489 1491 10.3021
r5183 1487 2319 9.3
r5184 1485 1919 8.61065
r5185 1485 1487 19.246
r5186 1484 2058 4.65
r5187 1482 2056 4.65
r5188 1482 1484 90.0321
r5189 1480 1915 11.4275
r5190 1480 1482 17.9412
r5191 1479 1927 5.04977
r5192 1479 1484 19.8984
r5193 1478 2287 4.65
r5194 1476 1917 9.31531
r5195 1476 1478 86.7701
r5196 1475 1921 7.02821
r5197 1475 1478 23.8128
r5198 1471 1917 1.24149
r5199 1471 1473 10.4343
r5200 1467 1915 2.12513
r5201 1467 1469 8.65398
r5202 1466 2052 6.2
r5203 1464 2050 6.2
r5204 1464 1466 60.0214
r5205 1462 1913 8.61065
r5206 1462 1464 18.5936
r5207 1461 1915 11.4275
r5208 1461 1466 8.80749
r5209 1457 1913 0.89609
r5210 1457 1459 10.2672
r5211 1456 2281 4.65
r5212 1454 2279 4.65
r5213 1454 1456 90.0321
r5214 1452 1911 6.13603
r5215 1452 1454 19.246
r5216 1451 1917 9.31531
r5217 1451 1456 9.13369
r5218 1447 1911 0.593901
r5219 1447 1449 19.2771
r5220 1446 1909 5.16603
r5221 1445 1911 6.13603
r5222 1445 1446 49.5829
r5223 1441 1909 1.34256
r5224 1441 1443 29.0321
r5225 1440 2044 4.65
r5226 1438 2042 4.65
r5227 1438 1440 90.0321
r5228 1436 1896 11.4275
r5229 1436 1438 17.9412
r5230 1435 1913 8.61065
r5231 1435 1440 19.8984
r5232 1433 1909 5.16603
r5233 1433 1434 46.9733
r5234 1428 2273 9.3
r5235 1428 1434 10.7148
r5236 1428 1905 7.94901
r5237 1424 1896 2.12513
r5238 1424 1426 8.65398
r5239 1420 1901 2.52964
r5240 1420 1422 10.6957
r5241 1419 2038 4.65
r5242 1417 1894 7.85057
r5243 1417 1419 50.5615
r5244 1416 1896 11.4275
r5245 1416 1419 8.80749
r5246 1411 1894 0.489042
r5247 1410 1892 5.90115
r5248 1409 1898 10.7148
r5249 1409 1410 16.6364
r5250 1405 1892 0.764409
r5251 1405 1407 24.9545
r5252 1404 2034 9.3
r5253 1402 1890 8.61065
r5254 1402 1404 18.5936
r5255 1401 1894 7.85057
r5256 1401 1404 20.5508
r5257 1397 1890 0.89609
r5258 1397 1399 10.2672
r5259 1396 2263 9.3
r5260 1394 1888 8.61065
r5261 1394 1396 18.2674
r5262 1393 1892 5.90115
r5263 1393 1396 20.877
r5264 1389 1888 0.89609
r5265 1389 1391 15.7151
r5266 1388 2030 9.3
r5267 1386 1886 7.02821
r5268 1386 1388 19.8984
r5269 1385 1890 8.61065
r5270 1385 1388 19.8984
r5271 1381 1886 0.00168595
r5272 1381 1383 13.5527
r5273 1380 2259 9.3
r5274 1378 1884 7.13466
r5275 1378 1380 23.1604
r5276 1377 1888 8.61065
r5277 1377 1380 20.2246
r5278 1373 1884 0.067832
r5279 1373 1375 20.3372
r5280 1372 2255 9.3
r5281 1370 1882 8.61065
r5282 1370 1372 18.5936
r5283 1369 1884 7.13466
r5284 1369 1372 20.2246
r5285 1365 1882 0.89609
r5286 1365 1367 15.7151
r5287 1364 2026 4.65
r5288 1362 1880 9.31531
r5289 1362 1364 86.7701
r5290 1361 1886 7.02821
r5291 1361 1364 23.8128
r5292 1360 1878 5.90115
r5293 1359 1882 8.61065
r5294 1359 1360 30.9893
r5295 1355 1880 1.24149
r5296 1355 1357 10.4031
r5297 1351 1878 0.764409
r5298 1351 1353 24.9545
r5299 1350 2248 9.3
r5300 1348 1876 8.61065
r5301 1348 1350 18.2674
r5302 1347 1878 5.90115
r5303 1347 1350 20.877
r5304 1343 1876 0.89609
r5305 1343 1345 15.7151
r5306 1342 2244 9.3
r5307 1340 1874 7.13466
r5308 1340 1342 23.1604
r5309 1339 1876 8.61065
r5310 1339 1342 20.2246
r5311 1338 2020 4.65
r5312 1336 2018 4.65
r5313 1336 1338 90.0321
r5314 1334 1872 6.13603
r5315 1334 1336 19.246
r5316 1333 1880 9.31531
r5317 1333 1338 9.13369
r5318 1329 1874 0.067832
r5319 1329 1331 20.3372
r5320 1325 1872 0.593901
r5321 1325 1327 19.2242
r5322 1323 2209 9.3
r5323 1321 1870 8.61065
r5324 1321 1323 19.246
r5325 1319 2169 9.3
r5326 1317 1868 8.61065
r5327 1317 1319 19.246
r5328 1316 2240 9.3
r5329 1314 1866 8.61065
r5330 1314 1316 18.5936
r5331 1313 1874 7.13466
r5332 1313 1316 20.2246
r5333 1309 1870 0.89609
r5334 1309 1311 10.3021
r5335 1305 1868 0.89609
r5336 1305 1307 10.3021
r5337 1304 1864 5.16603
r5338 1303 1872 6.13603
r5339 1303 1304 49.5829
r5340 1299 1866 0.89609
r5341 1299 1301 15.7151
r5342 1295 1864 1.34256
r5343 1295 1297 28.9668
r5344 1294 1862 7.85057
r5345 1293 1866 8.61065
r5346 1293 1294 25.4438
r5347 1292 2204 9.3
r5348 1290 1860 10.4059
r5349 1290 1292 20.5508
r5350 1289 1870 8.61065
r5351 1289 1292 19.246
r5352 1288 2164 9.3
r5353 1286 1858 10.4059
r5354 1286 1288 20.5508
r5355 1285 1868 8.61065
r5356 1285 1288 19.246
r5357 1284 1854 7.85057
r5358 1283 1864 5.16603
r5359 1283 1284 16.9626
r5360 1278 1862 0.489042
r5361 1273 1860 3.57586
r5362 1268 1860 3.57586
r5363 1263 1858 3.57586
r5364 1258 1858 3.57586
r5365 1253 1856 3.24686
r5366 1248 1856 3.24686
r5367 1243 1854 0.489042
r5368 1242 2234 9.3
r5369 1240 1852 7.02821
r5370 1240 1242 19.8984
r5371 1239 1862 7.85057
r5372 1239 1242 20.5508
r5373 1238 2200 9.3
r5374 1236 1850 3.71787
r5375 1236 1238 19.8984
r5376 1235 1860 10.4059
r5377 1235 1238 20.5508
r5378 1234 2160 9.3
r5379 1232 1848 3.71787
r5380 1232 1234 19.8984
r5381 1231 1858 10.4059
r5382 1231 1234 20.5508
r5383 1230 2127 9.3
r5384 1228 1846 3.71787
r5385 1228 1230 19.8984
r5386 1227 1856 3.3199
r5387 1227 1230 20.5508
r5388 1226 2010 9.3
r5389 1224 1844 3.71787
r5390 1224 1226 19.8984
r5391 1223 1854 7.85057
r5392 1223 1226 20.5508
r5393 1219 1852 0.00168595
r5394 1219 1221 13.5988
r5395 1215 1850 2.43149
r5396 1215 1217 13.5988
r5397 1211 1848 2.43149
r5398 1211 1213 13.5988
r5399 1207 1846 2.43149
r5400 1207 1209 13.5988
r5401 1203 1844 2.43149
r5402 1203 1205 13.5527
r5403 1199 1850 2.43149
r5404 1199 1201 29.0321
r5405 1195 1848 2.43149
r5406 1195 1197 29.0321
r5407 1191 1846 2.43149
r5408 1191 1193 29.0321
r5409 1187 1844 2.43149
r5410 1187 1189 29.0321
r5411 1186 2196 4.65
r5412 1184 1842 6.13603
r5413 1184 1186 27.0749
r5414 1183 1850 3.71787
r5415 1183 1186 22.508
r5416 1182 2156 4.65
r5417 1180 1841 6.13603
r5418 1180 1182 27.0749
r5419 1179 1848 3.71787
r5420 1179 1182 22.508
r5421 1178 2123 4.65
r5422 1176 1840 6.13603
r5423 1176 1178 27.0749
r5424 1175 1846 3.71787
r5425 1175 1178 22.508
r5426 1174 2006 4.65
r5427 1172 1839 6.13603
r5428 1172 1174 27.0749
r5429 1171 1844 3.71787
r5430 1171 1174 22.508
r5431 1167 1842 0.593901
r5432 1167 1169 19.2771
r5433 1163 1841 0.593901
r5434 1163 1165 19.2771
r5435 1159 1840 0.593901
r5436 1159 1161 19.2771
r5437 1155 1839 0.593901
r5438 1155 1157 19.2771
r5439 1154 2230 4.65
r5440 1152 1838 9.31531
r5441 1152 1154 86.7701
r5442 1151 1852 7.02821
r5443 1151 1154 23.8128
r5444 1150 2194 4.65
r5445 1148 1836 9.31531
r5446 1148 1150 26.7487
r5447 1147 1842 6.13603
r5448 1147 1150 19.246
r5449 1146 2154 4.65
r5450 1144 1835 9.31531
r5451 1144 1146 26.7487
r5452 1143 1841 6.13603
r5453 1143 1146 19.246
r5454 1142 2121 4.65
r5455 1140 1834 9.31531
r5456 1140 1142 26.7487
r5457 1139 1840 6.13603
r5458 1139 1142 19.246
r5459 1138 2004 4.65
r5460 1136 1833 9.31531
r5461 1136 1138 26.7487
r5462 1135 1839 6.13603
r5463 1135 1138 19.246
r5464 1131 1838 1.24149
r5465 1131 1133 10.4343
r5466 1127 1836 1.24149
r5467 1127 1129 10.4343
r5468 1123 1835 1.24149
r5469 1123 1125 10.4343
r5470 1119 1834 1.24149
r5471 1119 1121 10.4343
r5472 1115 1833 1.24149
r5473 1115 1117 10.4031
r5474 1114 2190 4.65
r5475 1112 1832 9.31531
r5476 1112 1114 39.1444
r5477 1111 1836 9.31531
r5478 1111 1114 9.13369
r5479 1110 2150 4.65
r5480 1108 1830 9.31531
r5481 1108 1110 39.1444
r5482 1107 1835 9.31531
r5483 1107 1110 9.13369
r5484 1106 2117 4.65
r5485 1104 1828 9.31531
r5486 1104 1106 39.1444
r5487 1103 1834 9.31531
r5488 1103 1106 9.13369
r5489 1102 2000 4.65
r5490 1100 1826 9.31531
r5491 1100 1102 39.1444
r5492 1099 1833 9.31531
r5493 1099 1102 9.13369
r5494 1095 1832 1.24149
r5495 1095 1097 10.4343
r5496 1091 1830 1.24149
r5497 1091 1093 10.4343
r5498 1087 1828 1.24149
r5499 1087 1089 10.4343
r5500 1083 1826 1.24149
r5501 1083 1085 10.4343
r5502 1082 2224 4.65
r5503 1080 2217 4.65
r5504 1080 1082 90.0321
r5505 1078 1824 6.13603
r5506 1078 1080 19.246
r5507 1077 1838 9.31531
r5508 1077 1082 9.13369
r5509 1076 1822 6.13603
r5510 1075 1832 9.31531
r5511 1075 1076 45.9947
r5512 1074 1820 6.13603
r5513 1073 1830 9.31531
r5514 1073 1074 45.9947
r5515 1072 1818 6.13603
r5516 1071 1828 9.31531
r5517 1071 1072 45.9947
r5518 1070 1816 6.13603
r5519 1069 1826 9.31531
r5520 1069 1070 45.9947
r5521 1065 1824 0.593901
r5522 1065 1067 19.2771
r5523 1061 1822 0.593901
r5524 1061 1063 19.2771
r5525 1057 1820 0.593901
r5526 1057 1059 19.2771
r5527 1053 1818 0.593901
r5528 1053 1055 19.2771
r5529 1049 1816 0.593901
r5530 1049 1051 19.2242
r5531 1048 1814 5.16603
r5532 1047 1824 6.13603
r5533 1047 1048 49.5829
r5534 1046 1812 3.71787
r5535 1045 1822 6.13603
r5536 1045 1046 49.5829
r5537 1044 1810 3.71787
r5538 1043 1820 6.13603
r5539 1043 1044 49.5829
r5540 1042 1808 3.71787
r5541 1041 1818 6.13603
r5542 1041 1042 49.5829
r5543 1040 1806 3.71787
r5544 1039 1816 6.13603
r5545 1039 1040 49.5829
r5546 1035 1814 1.34256
r5547 1035 1037 29.0321
r5548 1031 1812 2.43149
r5549 1031 1033 29.0321
r5550 1027 1810 2.43149
r5551 1027 1029 29.0321
r5552 1023 1808 2.43149
r5553 1023 1025 29.0321
r5554 1019 1806 2.43149
r5555 1019 1021 28.9668
r5556 1015 1812 2.43149
r5557 1015 1017 13.5988
r5558 1011 1810 2.43149
r5559 1011 1013 13.5988
r5560 1007 1808 2.43149
r5561 1007 1009 13.5988
r5562 1003 1806 2.43149
r5563 1003 1005 13.5988
r5564 999 2172 9.3
r5565 997 1812 3.71787
r5566 997 999 19.8984
r5567 995 2132 9.3
r5568 993 1810 3.71787
r5569 993 995 19.8984
r5570 991 2099 9.3
r5571 989 1808 3.71787
r5572 989 991 19.8984
r5573 987 1982 9.3
r5574 985 1806 3.71787
r5575 985 987 19.8984
r5576 673 1638 12.6769
r5577 673 1539 12.7166
r5578 673 1534 12.7166
r5579 673 1529 12.7166
r5580 673 1524 12.7166
r5581 673 1519 12.7166
r5582 673 1514 12.7166
r5583 673 1509 12.7166
r5584 673 1428 12.7166
r5585 673 1411 12.6769
r5586 673 1278 12.7166
r5587 673 1273 12.7166
r5588 673 1268 12.7166
r5589 673 1263 12.7166
r5590 673 1258 12.7166
r5591 673 1253 12.7166
r5592 673 1248 12.7166
r5593 673 1243 12.7166
r5594 671 1422 145.28
r5595 666 671 52.5818
r5596 666 668 23.6772
r5597 97 1751 182
r5598 96 1695 182
r5599 95 1691 182
r5600 94 1687 182
r5601 93 1683 182
r5602 92 1659 182
r5603 91 1655 182
r5604 90 1651 182
r5605 89 1647 182
r5606 88 1507 182
r5607 87 1473 182
r5608 86 1459 182
r5609 85 1357 182
r5610 84 1133 182
r5611 83 1129 182
r5612 82 1125 182
r5613 81 1121 182
r5614 80 1117 182
r5615 79 1097 182
r5616 78 1093 182
r5617 77 1089 182
r5618 76 1085 182
r5619 75 1783 182
r5620 74 1779 182
r5621 73 1775 182
r5622 72 1771 182
r5623 71 1767 182
r5624 70 1763 182
r5625 69 1759 182
r5626 68 1755 182
r5627 67 1731 182
r5628 66 1727 182
r5629 65 1723 182
r5630 64 1719 182
r5631 63 1679 91
r5632 62 1624 182
r5633 61 1620 182
r5634 60 1616 182
r5635 59 1612 182
r5636 58 1604 182
r5637 57 1590 182
r5638 56 1586 182
r5639 55 1582 182
r5640 54 1578 182
r5641 53 1574 182
r5642 52 1570 182
r5643 51 1566 182
r5644 50 1562 182
r5645 49 1499 182
r5646 48 1491 182
r5647 47 1469 91
r5648 46 1449 182
r5649 45 1443 182
r5650 44 1426 91
r5651 42 1903 182
r5652 42 1900 182
r5653 41 1407 182
r5654 40 1399 182
r5655 39 1391 182
r5656 38 1383 182
r5657 37 1375 182
r5658 36 1367 182
r5659 35 1353 182
r5660 34 1345 182
r5661 33 1331 182
r5662 32 1327 182
r5663 31 1311 182
r5664 30 1307 182
r5665 29 1301 182
r5666 28 1297 182
r5667 27 1221 182
r5668 26 1217 182
r5669 25 1213 182
r5670 24 1209 182
r5671 23 1205 182
r5672 22 1201 182
r5673 21 1197 182
r5674 20 1193 182
r5675 19 1189 182
r5676 18 1169 182
r5677 17 1165 182
r5678 16 1161 182
r5679 15 1157 182
r5680 14 1067 182
r5681 13 1063 182
r5682 12 1059 182
r5683 11 1055 182
r5684 10 1051 182
r5685 9 1037 182
r5686 8 1033 182
r5687 7 1029 182
r5688 6 1025 182
r5689 5 1021 182
r5690 4 1017 182
r5691 3 1013 182
r5692 2 1009 182
r5693 1 1005 182
.ends

.subckt PM_LutB%VPWR 1 2 3 4 5 6 7 8 9 10 11 12 13 14 15 16 17 18 19 20 21 22 23
+ 24 25 26 27 28 29 30 31 32 33 34 35 36 37 38 39 40 41 42 44 45 46 47 48 49 50
+ 51 52 53 54 55 56 57 58 59 60 61 62 63 64 65 66 67 68 69 70 71 72 73 74 75 76
+ 77 78 79 80 81 82 83 84 85 86 87 88 89 90 91 92 93 94 95 96 97 623 637 651 652
+ 653 654 655 785 925 927 930 934 938 942 948 952 956 960 964 968 972 976 980
+ 982 984 986 988 990 994 998 1002 1006 1010 1012 1018 1022 1026 1030 1036 1040
+ 1044 1048 1050 1054 1058 1062 1068 1072 1076 1080 1084 1086 1092 1096 1100
+ 1104 1110 1114 1118 1122 1124 1128 1132 1136 1142 1146 1150 1154 1158 1162
+ 1166 1170 1174 1176 1180 1184 1188 1192 1198 1204 1210 1216 1222 1228 1234
+ 1240 1244 1248 1254 1258 1260 1264 1268 1272 1274 1280 1284 1286 1292 1298
+ 1300 1306 1310 1312 1314 1322 1324 1330 1332 1338 1340 1346 1348 1354 1356
+ 1362 1368 1374 1376 1382 1384 1390 1394 1395 1398 1400 1404 1406 1414 1418
+ 1426 1430 1432 1438 1442 1448 1450 1456 1460 1466 1472 1478 1484 1490 1496
+ 1502 1506 1510 1514 1518 1522 1523 1528 1532 1536 1540 1544 1548 1552 1556
+ 1558 1560 1562 1564 1568 1570 1576 1580 1584 1588 1590 1594 1598 1602 1608
+ 1612 1618 1622 1626 1630 1632 1636 1640 1644 1650 1652 1658 1662 1666 1670
+ 1672 1676 1680 1684 1690 1694 1698 1702 1704 1708 1712 1716 1722 1726 1730
+ 1734 1738 1742 1746 1750 1754 1760 1764 1768 1772 1776 1779 1781 1783 1785
+ 1787 1791 1793 1795 1797 1798 1799 1800 1801 1803 1804 1805 1806 1807 1808
+ 1809 1810 1812 1814 1816 1818 1822 1824 1832 1838 1840 1842 1845 1847 1851
+ 1855 1884 1892 1894 1896 1898 1902 1904 1906 1908 1911 1912 1913 1914 1916
+ 1917 1918 1919 1920 1921 1922 1923 1925 1927 1929 1931 2018 2049 2080 2118
+ 2234 2272 2303 2334 2366 2381 2396 2397 VGND
c4348 2381 VGND 0.00177585f
c4349 2366 VGND 0.00227289f
c4350 2334 VGND 1.9934e-19
c4351 2303 VGND 1.9934e-19
c4352 2272 VGND 1.9934e-19
c4353 2234 VGND 3.98681e-19
c4354 2118 VGND 1.9934e-19
c4355 2080 VGND 1.9934e-19
c4356 2049 VGND 1.9934e-19
c4357 1931 VGND 1.70294e-19
c4358 1914 VGND 1.5304e-19
c4359 1776 VGND 1.83546e-19
c4360 1734 VGND 1.5514e-19